pydss-projects/SFO_Urban_Medium_sol_p2uhs12_udt4058/DSSfiles/Lines.dss
New Line.l(r:p2udt7lv-p2ulv8) Units=km Length=0.015143500000000002 bus1=p2udt7lv.1.2 bus2=p2ulv8.1.2 switch=n enabled=y phases=2 Linecode=1P_UG_AL_1/0_Brenau_2

New Line.l(r:p2udm47-p2ulv45287) Units=km Length=0.0117064 bus1=p2udm47.1.2 bus2=p2ulv45287.1.2 switch=n enabled=y phases=2 Linecode=1P_UG_AL_1/0_Brenau_2

New Line.l(r:p2udm44-p2ulv17456) Units=km Length=0.0163566 bus1=p2udm44.1.2 bus2=p2ulv17456.1.2 switch=n enabled=y phases=2 Linecode=1P_UG_AL_1/0_Brenau_2

New Line.l(r:p2udm44-p2ulv45286) Units=km Length=0.0116852 bus1=p2udm44.1.2 bus2=p2ulv45286.1.2 switch=n enabled=y phases=2 Linecode=1P_UG_AL_1/0_Brenau_2

New Line.l(r:p2udm44-p2udm47) Units=km Length=0.00937568 bus1=p2udm47.1.2 bus2=p2udm44.1.2 switch=n enabled=y phases=2 Linecode=1P_UG_AL_4/0_Sweetbriar_2

New Line.l(r:p2udm47-p2udt7lv) Units=km Length=0.0187448 bus1=p2udt7lv.1.2 bus2=p2udm47.1.2 switch=n enabled=y phases=2 Linecode=1P_UG_AL_4/0_Sweetbriar_2

New Line.l(r:p2udm48-p2ulv45290) Units=km Length=0.012865 bus1=p2udm48.1.2 bus2=p2ulv45290.1.2 switch=n enabled=y phases=2 Linecode=1P_UG_AL_1/0_Brenau_2

New Line.l(r:p2udm45-p2ulv28805) Units=km Length=0.0136325 bus1=p2udm45.1.2 bus2=p2ulv28805.1.2 switch=n enabled=y phases=2 Linecode=1P_UG_AL_1/0_Brenau_2

New Line.l(r:p2udm45-p2udm48) Units=km Length=0.0278459 bus1=p2udm48.1.2 bus2=p2udm45.1.2 switch=n enabled=y phases=2 Linecode=1P_UG_AL_1/0_Brenau_2

New Line.l(r:p2udm48-p2udt7lv) Units=km Length=0.00937732 bus1=p2udt7lv.1.2 bus2=p2udm48.1.2 switch=n enabled=y phases=2 Linecode=1P_UG_AL_2/0_Converse_2

New Line.l(r:p2udt657lv-p2ulv1334) Units=km Length=0.013426300000000002 bus1=p2udt657lv.1.2 bus2=p2ulv1334.1.2 switch=n enabled=y phases=2 Linecode=1P_UG_AL_2/0_Converse_2

New Line.l(r:p2udt657lv-p2ulv19017) Units=km Length=0.0127475 bus1=p2udt657lv.1.2 bus2=p2ulv19017.1.2 switch=n enabled=y phases=2 Linecode=1P_UG_AL_1/0_Brenau_2

New Line.l(r:p2udm2265-p2ulv2497) Units=km Length=0.0100062 bus1=p2udm2265.1.2 bus2=p2ulv2497.1.2 switch=n enabled=y phases=2 Linecode=1P_UG_AL_1/0_Brenau_2

New Line.l(r:p2udm2265-p2udt657lv) Units=km Length=0.00979325 bus1=p2udt657lv.1.2 bus2=p2udm2265.1.2 switch=n enabled=y phases=2 Linecode=1P_UG_AL_1/0_Brenau_2

New Line.l(r:p2udm2267-p2ulv19018) Units=km Length=0.0121276 bus1=p2udm2267.1.2 bus2=p2ulv19018.1.2 switch=n enabled=y phases=2 Linecode=1P_UG_AL_1/0_Brenau_2

New Line.l(r:p2udm2268-p2ulv19020) Units=km Length=0.0121083 bus1=p2udm2268.1.2 bus2=p2ulv19020.1.2 switch=n enabled=y phases=2 Linecode=1P_UG_AL_1/0_Brenau_2

New Line.l(r:p2udm2267-p2udm2268) Units=km Length=0.00979325 bus1=p2udm2267.1.2 bus2=p2udm2268.1.2 switch=n enabled=y phases=2 Linecode=1P_UG_AL_1/0_Brenau_2

New Line.l(r:p2udm2267-p2udt657lv) Units=km Length=0.00979161 bus1=p2udt657lv.1.2 bus2=p2udm2267.1.2 switch=n enabled=y phases=2 Linecode=1P_UG_AL_4/0_Sweetbriar_2

New Line.l(r:p2udm2558-p2ulv15565) Units=km Length=0.0107787 bus1=p2udm2558.1.2 bus2=p2ulv15565.1.2 switch=n enabled=y phases=2 Linecode=1P_UG_AL_1/0_Brenau_2

New Line.l(r:p2udm2560-p2ulv45256) Units=km Length=0.00912781 bus1=p2udm2560.1.2 bus2=p2ulv45256.1.2 switch=n enabled=y phases=2 Linecode=1P_UG_AL_1/0_Brenau_2

New Line.l(r:p2udm2561-p2ulv45258) Units=km Length=0.011191 bus1=p2udm2561.1.2 bus2=p2ulv45258.1.2 switch=n enabled=y phases=2 Linecode=1P_UG_AL_1/0_Brenau_2

New Line.l(r:p2udm2560-p2udm2561) Units=km Length=0.0459594 bus1=p2udm2560.1.2 bus2=p2udm2561.1.2 switch=n enabled=y phases=2 Linecode=1P_UG_AL_1/0_Brenau_2

New Line.l(r:p2udm2558-p2udm2560) Units=km Length=0.00930663 bus1=p2udm2558.1.2 bus2=p2udm2560.1.2 switch=n enabled=y phases=2 Linecode=1P_UG_AL_1/0_Brenau_2

New Line.l(r:p2udm2558-p2udt713lv) Units=km Length=0.00929512 bus1=p2udt713lv.1.2 bus2=p2udm2558.1.2 switch=n enabled=y phases=2 Linecode=1P_UG_AL_4/0_Sweetbriar_2

New Line.l(r:p2udm2559-p2ulv44012) Units=km Length=0.0135097 bus1=p2udm2559.1.2 bus2=p2ulv44012.1.2 switch=n enabled=y phases=2 Linecode=1P_UG_AL_1/0_Brenau_2

New Line.l(r:p2udm2559-p2ulv45259) Units=km Length=0.010399500000000002 bus1=p2udm2559.1.2 bus2=p2ulv45259.1.2 switch=n enabled=y phases=2 Linecode=1P_UG_AL_1/0_Brenau_2

New Line.l(r:p2udm2557-p2ulv1398) Units=km Length=0.0198449 bus1=p2udm2557.1.2 bus2=p2ulv1398.1.2 switch=n enabled=y phases=2 Linecode=1P_UG_AL_1/0_Brenau_2

New Line.l(r:p2udm2557-p2ulv45260) Units=km Length=0.0102933 bus1=p2udm2557.1.2 bus2=p2ulv45260.1.2 switch=n enabled=y phases=2 Linecode=1P_UG_AL_1/0_Brenau_2

New Line.l(r:p2udm2557-p2udm2559) Units=km Length=0.00930663 bus1=p2udm2559.1.2 bus2=p2udm2557.1.2 switch=n enabled=y phases=2 Linecode=1P_UG_AL_1/0_Brenau_2

New Line.l(r:p2udm2559-p2udt713lv) Units=km Length=0.00929676 bus1=p2udt713lv.1.2 bus2=p2udm2559.1.2 switch=n enabled=y phases=2 Linecode=1P_UG_AL_2/0_Converse_2

New Line.l(r:p2udt1143lv-p2ulv20158) Units=km Length=0.011064000000000001 bus1=p2udt1143lv.1.2 bus2=p2ulv20158.1.2 switch=n enabled=y phases=2 Linecode=1P_UG_AL_1/0_Brenau_2

New Line.l(r:p2udm3805-p2ulv2398) Units=km Length=0.0424724 bus1=p2udm3805.1.2 bus2=p2ulv2398.1.2 switch=n enabled=y phases=2 Linecode=1P_UG_AL_1/0_Brenau_2

New Line.l(r:p2udm3805-p2ulv20156) Units=km Length=0.0127772 bus1=p2udm3805.1.2 bus2=p2ulv20156.1.2 switch=n enabled=y phases=2 Linecode=1P_UG_AL_1/0_Brenau_2

New Line.l(r:p2udm3805-p2ulv22999) Units=km Length=0.0104169 bus1=p2udm3805.1.2 bus2=p2ulv22999.1.2 switch=n enabled=y phases=2 Linecode=1P_UG_AL_1/0_Brenau_2

New Line.l(r:p2udm3807-p2ulv20153) Units=km Length=0.00990234 bus1=p2udm3807.1.2 bus2=p2ulv20153.1.2 switch=n enabled=y phases=2 Linecode=1P_UG_AL_1/0_Brenau_2

New Line.l(r:p2udm3805-p2udm3807) Units=km Length=0.00971105 bus1=p2udm3805.1.2 bus2=p2udm3807.1.2 switch=n enabled=y phases=2 Linecode=1P_UG_AL_1/0_Brenau_2

New Line.l(r:p2udm3805-p2udt1143lv) Units=km Length=0.009712690000000001 bus1=p2udt1143lv.1.2 bus2=p2udm3805.1.2 switch=n enabled=y phases=2 Linecode=1P_UG_AL_4/0_Sweetbriar_2

New Line.l(r:p2udm3806-p2ulv20146) Units=km Length=0.0102259 bus1=p2udm3806.1.2 bus2=p2ulv20146.1.2 switch=n enabled=y phases=2 Linecode=1P_UG_AL_1/0_Brenau_2

New Line.l(r:p2udm3806-p2ulv20159) Units=km Length=0.010918 bus1=p2udm3806.1.2 bus2=p2ulv20159.1.2 switch=n enabled=y phases=2 Linecode=1P_UG_AL_1/0_Brenau_2

New Line.l(r:p2udm3811-p2ulv20160) Units=km Length=0.010531200000000001 bus1=p2udm3811.1.2 bus2=p2ulv20160.1.2 switch=n enabled=y phases=2 Linecode=1P_UG_AL_1/0_Brenau_2

New Line.l(r:p2udm3812-p2ulv20163) Units=km Length=0.013941100000000001 bus1=p2udm3812.1.2 bus2=p2ulv20163.1.2 switch=n enabled=y phases=2 Linecode=1P_UG_AL_1/0_Brenau_2

New Line.l(r:p2udm3811-p2udm3812) Units=km Length=0.0194336 bus1=p2udm3811.1.2 bus2=p2udm3812.1.2 switch=n enabled=y phases=2 Linecode=1P_UG_AL_1/0_Brenau_2

New Line.l(r:p2udm3806-p2udm3811) Units=km Length=0.00971105 bus1=p2udm3806.1.2 bus2=p2udm3811.1.2 switch=n enabled=y phases=2 Linecode=1P_UG_AL_2/0_Converse_2

New Line.l(r:p2udm3806-p2udt1143lv) Units=km Length=0.00971105 bus1=p2udt1143lv.1.2 bus2=p2udm3806.1.2 switch=n enabled=y phases=2 Linecode=1P_UG_AL_4/0_Sweetbriar_2

New Line.l(r:p2udt1192lv-p2ulv17453) Units=km Length=0.0159888 bus1=p2udt1192lv.1.2 bus2=p2ulv17453.1.2 switch=n enabled=y phases=2 Linecode=1P_OH_AL_2/0_Rucina_2

New Line.l(r:p2udt1192lv-p2ulv45310) Units=km Length=0.0136376 bus1=p2udt1192lv.1.2 bus2=p2ulv45310.1.2 switch=n enabled=y phases=2 Linecode=1P_OH_AL_2/0_Rucina_2

New Line.l(r:p2udm4019-p2ulv2456) Units=km Length=0.0142703 bus1=p2udm4019.1.2 bus2=p2ulv2456.1.2 switch=n enabled=y phases=2 Linecode=1P_OH_AL_2/0_Rucina_2

New Line.l(r:p2udm4019-p2udt1192lv) Units=km Length=0.0192511 bus1=p2udt1192lv.1.2 bus2=p2udm4019.1.2 switch=n enabled=y phases=2 Linecode=1P_OH_AL_2/0_Rucina_2

New Line.l(r:p2udm4020-p2ulv17452) Units=km Length=0.0163494 bus1=p2udm4020.1.2 bus2=p2ulv17452.1.2 switch=n enabled=y phases=2 Linecode=1P_OH_AL_2/0_Rucina_2_3

New Line.l(r:p2udm4020-p2ulv45309) Units=km Length=0.0148937 bus1=p2udm4020.1.2 bus2=p2ulv45309.1.2 switch=n enabled=y phases=2 Linecode=1P_OH_AL_2/0_Rucina_2

New Line.l(r:p2udm4024-p2ulv45312) Units=km Length=0.0144514 bus1=p2udm4024.1.2 bus2=p2ulv45312.1.2 switch=n enabled=y phases=2 Linecode=1P_OH_AL_2/0_Rucina_2

New Line.l(r:p2udm4020-p2udm4024) Units=km Length=0.0192511 bus1=p2udm4020.1.2 bus2=p2udm4024.1.2 switch=n enabled=y phases=2 Linecode=1P_OH_AL_2/0_Rucina_2

New Line.l(r:p2udm4020-p2udt1192lv) Units=km Length=0.0192511 bus1=p2udt1192lv.1.2 bus2=p2udm4020.1.2 switch=n enabled=y phases=2 Linecode=1P_OH_AL_2/0_Rucina_2_2

New Line.l(r:p2udt1209lv-p2ulv45255) Units=km Length=0.0102502 bus1=p2udt1209lv.1.2 bus2=p2ulv45255.1.2 switch=n enabled=y phases=2 Linecode=1P_UG_AL_1/0_Brenau_2

New Line.l(r:p2udm4087-p2ulv2475) Units=km Length=0.0331397 bus1=p2udm4087.1.2 bus2=p2ulv2475.1.2 switch=n enabled=y phases=2 Linecode=1P_UG_AL_1/0_Brenau_2

New Line.l(r:p2udm4087-p2ulv35726) Units=km Length=0.00960926 bus1=p2udm4087.1.2 bus2=p2ulv35726.1.2 switch=n enabled=y phases=2 Linecode=1P_UG_AL_1/0_Brenau_2

New Line.l(r:p2udm4093-p2ulv45264) Units=km Length=0.011109 bus1=p2udm4093.1.2 bus2=p2ulv45264.1.2 switch=n enabled=y phases=2 Linecode=1P_UG_AL_1/0_Brenau_2

New Line.l(r:p2udm4087-p2udm4093) Units=km Length=0.00961076 bus1=p2udm4087.1.2 bus2=p2udm4093.1.2 switch=n enabled=y phases=2 Linecode=1P_UG_AL_1/0_Brenau_2

New Line.l(r:p2udm4087-p2udt1209lv) Units=km Length=0.00961076 bus1=p2udt1209lv.1.2 bus2=p2udm4087.1.2 switch=n enabled=y phases=2 Linecode=1P_UG_AL_4/0_Sweetbriar_2

New Line.l(r:p2udm4089-p2ulv45253) Units=km Length=0.00995266 bus1=p2udm4089.1.2 bus2=p2ulv45253.1.2 switch=n enabled=y phases=2 Linecode=1P_UG_AL_1/0_Brenau_2

New Line.l(r:p2udm4090-p2ulv45254) Units=km Length=0.0098059 bus1=p2udm4090.1.2 bus2=p2ulv45254.1.2 switch=n enabled=y phases=2 Linecode=1P_UG_AL_2/0_Converse_2

New Line.l(r:p2udm4090-p2ulv45257) Units=km Length=0.0102712 bus1=p2udm4090.1.2 bus2=p2ulv45257.1.2 switch=n enabled=y phases=2 Linecode=1P_UG_AL_1/0_Brenau_2

New Line.l(r:p2udm4089-p2udm4090) Units=km Length=0.00962063 bus1=p2udm4089.1.2 bus2=p2udm4090.1.2 switch=n enabled=y phases=2 Linecode=1P_UG_AL_4/0_Sweetbriar_2

New Line.l(r:p2udm4089-p2udt1209lv) Units=km Length=0.00961076 bus1=p2udt1209lv.1.2 bus2=p2udm4089.1.2 switch=n enabled=y phases=2 Linecode=1P_UG_AL_4/0_Sweetbriar_2

New Line.l(r:p2udt1243lv-p2ulv18670) Units=km Length=0.011944 bus1=p2udt1243lv.1.2 bus2=p2ulv18670.1.2 switch=n enabled=y phases=2 Linecode=1P_UG_AL_2/0_Converse_2

New Line.l(r:p2udt1243lv-p2ulv19029) Units=km Length=0.0174177 bus1=p2udt1243lv.1.2 bus2=p2ulv19029.1.2 switch=n enabled=y phases=2 Linecode=1P_UG_AL_1/0_Brenau_2

New Line.l(r:p2udm4233-p2ulv2514) Units=km Length=0.0176082 bus1=p2udm4233.1.2 bus2=p2ulv2514.1.2 switch=n enabled=y phases=2 Linecode=1P_UG_AL_1/0_Brenau_2

New Line.l(r:p2udm4237-p2ulv45084) Units=km Length=0.00919133 bus1=p2udm4237.1.2 bus2=p2ulv45084.1.2 switch=n enabled=y phases=2 Linecode=1P_UG_AL_2/0_Converse_2

New Line.l(r:p2udm4233-p2udm4237) Units=km Length=0.00996423 bus1=p2udm4233.1.2 bus2=p2udm4237.1.2 switch=n enabled=y phases=2 Linecode=1P_UG_AL_2/0_Converse_2

New Line.l(r:p2udm4233-p2udt1243lv) Units=km Length=0.009956 bus1=p2udt1243lv.1.2 bus2=p2udm4233.1.2 switch=n enabled=y phases=2 Linecode=1P_UG_AL_4/0_Sweetbriar_2

New Line.l(r:p2udm4234-p2ulv18667) Units=km Length=0.0135981 bus1=p2udm4234.1.2 bus2=p2ulv18667.1.2 switch=n enabled=y phases=2 Linecode=1P_UG_AL_1/0_Brenau_2

New Line.l(r:p2udm4234-p2udt1243lv) Units=km Length=0.0398405 bus1=p2udt1243lv.1.2 bus2=p2udm4234.1.2 switch=n enabled=y phases=2 Linecode=1P_UG_AL_1/0_Brenau_2

New Line.l(r:p2udt1609lv-p2ulv46163) Units=km Length=0.0095237 bus1=p2udt1609lv.1.2 bus2=p2ulv46163.1.2 switch=n enabled=y phases=2 Linecode=1P_UG_AL_2/0_Converse_2

New Line.l(r:p2udm5560-p2ulv3459) Units=km Length=0.0138266 bus1=p2udm5560.1.2 bus2=p2ulv3459.1.2 switch=n enabled=y phases=2 Linecode=1P_UG_AL_4/0_Sweetbriar_2

New Line.l(r:p2udm5560-p2udt1609lv) Units=km Length=0.00931814 bus1=p2udt1609lv.1.2 bus2=p2udm5560.1.2 switch=n enabled=y phases=2 Linecode=1P_UG_AL_4/0_Sweetbriar_2

New Line.l(r:p2udt1614lv-p2ulv3466) Units=km Length=0.0141522 bus1=p2udt1614lv.1.2 bus2=p2ulv3466.1.2 switch=n enabled=y phases=2 Linecode=1P_UG_AL_1/0_Brenau_2

New Line.l(r:p2udm5582-p2ulv6953) Units=km Length=0.0137527 bus1=p2udm5582.1.2 bus2=p2ulv6953.1.2 switch=n enabled=y phases=2 Linecode=1P_UG_AL_1/0_Brenau_2

New Line.l(r:p2udm5582-p2udt1614lv) Units=km Length=0.00972092 bus1=p2udt1614lv.1.2 bus2=p2udm5582.1.2 switch=n enabled=y phases=2 Linecode=1P_UG_AL_1/0_Brenau_2

New Line.l(r:p2udm5583-p2ulv44085) Units=km Length=0.013878100000000003 bus1=p2udm5583.1.2 bus2=p2ulv44085.1.2 switch=n enabled=y phases=2 Linecode=1P_UG_AL_1/0_Brenau_2

New Line.l(r:p2udm5583-p2udt1614lv) Units=km Length=0.009732420000000002 bus1=p2udt1614lv.1.2 bus2=p2udm5583.1.2 switch=n enabled=y phases=2 Linecode=1P_UG_AL_1/0_Brenau_2

New Line.l(r:p2udm5853-p2ulv3538) Units=km Length=0.0433342 bus1=p2udm5853.1.2 bus2=p2ulv3538.1.2 switch=n enabled=y phases=2 Linecode=1P_UG_AL_1/0_Brenau_2

New Line.l(r:p2udm5853-p2udt1677lv) Units=km Length=0.009893530000000001 bus1=p2udt1677lv.1.2 bus2=p2udm5853.1.2 switch=n enabled=y phases=2 Linecode=1P_UG_AL_1/0_Brenau_2

New Line.l(r:p2udm5854-p2ulv15571) Units=km Length=0.0102003 bus1=p2udm5854.1.2 bus2=p2ulv15571.1.2 switch=n enabled=y phases=2 Linecode=1P_UG_AL_4/0_Sweetbriar_2

New Line.l(r:p2udm5854-p2udt1677lv) Units=km Length=0.009893530000000001 bus1=p2udt1677lv.1.2 bus2=p2udm5854.1.2 switch=n enabled=y phases=2 Linecode=1P_UG_AL_4/0_Sweetbriar_2

New Line.l(r:p2udt1687lv-p2ulv20105) Units=km Length=0.0126895 bus1=p2udt1687lv.1.2 bus2=p2ulv20105.1.2 switch=n enabled=y phases=2 Linecode=1P_UG_AL_1/0_Brenau_2

New Line.l(r:p2udm5887-p2ulv3549) Units=km Length=0.0111688 bus1=p2udm5887.1.2 bus2=p2ulv3549.1.2 switch=n enabled=y phases=2 Linecode=1P_UG_AL_2/0_Converse_2

New Line.l(r:p2udm5887-p2ulv20106) Units=km Length=0.0142932 bus1=p2udm5887.1.2 bus2=p2ulv20106.1.2 switch=n enabled=y phases=2 Linecode=1P_UG_AL_4/0_Sweetbriar_2

New Line.l(r:p2udm5887-p2udt1687lv) Units=km Length=0.00989518 bus1=p2udt1687lv.1.2 bus2=p2udm5887.1.2 switch=n enabled=y phases=2 Linecode=1P_UG_AL_4/0_Sweetbriar_2

New Line.l(r:p2udm5888-p2ulv20104) Units=km Length=0.0116379 bus1=p2udm5888.1.2 bus2=p2ulv20104.1.2 switch=n enabled=y phases=2 Linecode=1P_UG_AL_1/0_Brenau_2

New Line.l(r:p2udm5888-p2udt1687lv) Units=km Length=0.009893530000000001 bus1=p2udt1687lv.1.2 bus2=p2udm5888.1.2 switch=n enabled=y phases=2 Linecode=1P_UG_AL_1/0_Brenau_2

New Line.l(r:p2udt1706lv-p2ulv3572) Units=km Length=0.0125015 bus1=p2udt1706lv.1.2 bus2=p2ulv3572.1.2 switch=n enabled=y phases=2 Linecode=1P_UG_AL_1/0_Brenau_2

New Line.l(r:p2udm5967-p2ulv18610) Units=km Length=0.0114095 bus1=p2udm5967.1.2 bus2=p2ulv18610.1.2 switch=n enabled=y phases=2 Linecode=1P_UG_AL_1/0_Brenau_2

New Line.l(r:p2udm5967-p2udt1706lv) Units=km Length=0.09245970000000002 bus1=p2udt1706lv.1.2 bus2=p2udm5967.1.2 switch=n enabled=y phases=2 Linecode=1P_UG_AL_1/0_Brenau_2

New Line.l(r:p2udm5968-p2ulv44757) Units=km Length=0.00883544 bus1=p2udm5968.1.2 bus2=p2ulv44757.1.2 switch=n enabled=y phases=2 Linecode=1P_UG_AL_1/0_Brenau_2

New Line.l(r:p2udm5969-p2ulv44760) Units=km Length=0.00911305 bus1=p2udm5969.1.2 bus2=p2ulv44760.1.2 switch=n enabled=y phases=2 Linecode=1P_UG_AL_1/0_Brenau_2

New Line.l(r:p2udm5968-p2udm5969) Units=km Length=0.0193909 bus1=p2udm5968.1.2 bus2=p2udm5969.1.2 switch=n enabled=y phases=2 Linecode=1P_UG_AL_1/0_Brenau_2

New Line.l(r:p2udm5968-p2udt1706lv) Units=km Length=0.009699550000000001 bus1=p2udt1706lv.1.2 bus2=p2udm5968.1.2 switch=n enabled=y phases=2 Linecode=1P_UG_AL_4/0_Sweetbriar_2

New Line.l(r:p2udt1731lv-p2ulv19049) Units=km Length=0.013281800000000002 bus1=p2udt1731lv.1.2 bus2=p2ulv19049.1.2 switch=n enabled=y phases=2 Linecode=1P_UG_AL_4/0_Sweetbriar_2

New Line.l(r:p2udm6080-p2ulv3606) Units=km Length=0.0178516 bus1=p2udm6080.1.2 bus2=p2ulv3606.1.2 switch=n enabled=y phases=2 Linecode=1P_UG_AL_1/0_Brenau_2

New Line.l(r:p2udm6080-p2ulv37096) Units=km Length=0.0101476 bus1=p2udm6080.1.2 bus2=p2ulv37096.1.2 switch=n enabled=y phases=2 Linecode=1P_UG_AL_4/0_Sweetbriar_2

New Line.l(r:p2udm6080-p2udt1731lv) Units=km Length=0.0092869 bus1=p2udt1731lv.1.2 bus2=p2udm6080.1.2 switch=n enabled=y phases=2 Linecode=1P_UG_AL_4/0_Sweetbriar_2

New Line.l(r:p2udm6081-p2ulv19048) Units=km Length=0.0113194 bus1=p2udm6081.1.2 bus2=p2ulv19048.1.2 switch=n enabled=y phases=2 Linecode=1P_UG_AL_1/0_Brenau_2

New Line.l(r:p2udm6081-p2udt1731lv) Units=km Length=0.0092869 bus1=p2udt1731lv.1.2 bus2=p2udm6081.1.2 switch=n enabled=y phases=2 Linecode=1P_UG_AL_1/0_Brenau_2

New Line.l(r:p2udm6418-p2ulv3729) Units=km Length=0.0106101 bus1=p2udm6418.1.2 bus2=p2ulv3729.1.2 switch=n enabled=y phases=2 Linecode=1P_UG_AL_2/0_Converse_2

New Line.l(r:p2udm6418-p2udt1818lv) Units=km Length=0.00978338 bus1=p2udt1818lv.1.2 bus2=p2udm6418.1.2 switch=n enabled=y phases=2 Linecode=1P_UG_AL_2/0_Converse_2

New Line.l(r:p2udm6419-p2ulv20525) Units=km Length=0.00996687 bus1=p2udm6419.1.2 bus2=p2ulv20525.1.2 switch=n enabled=y phases=2 Linecode=1P_UG_AL_1/0_Brenau_2

New Line.l(r:p2udm6419-p2udt1818lv) Units=km Length=0.00978338 bus1=p2udt1818lv.1.2 bus2=p2udm6419.1.2 switch=n enabled=y phases=2 Linecode=1P_UG_AL_1/0_Brenau_2

New Line.l(r:p2udt1846lv-p2ulv20082) Units=km Length=0.0153643 bus1=p2udt1846lv.1.2 bus2=p2ulv20082.1.2 switch=n enabled=y phases=2 Linecode=1P_UG_AL_1/0_Brenau_2

New Line.l(r:p2udm6552-p2ulv3765) Units=km Length=0.0156547 bus1=p2udm6552.1.2 bus2=p2ulv3765.1.2 switch=n enabled=y phases=2 Linecode=1P_UG_AL_1/0_Brenau_2

New Line.l(r:p2udm6552-p2ulv20083) Units=km Length=0.0171501 bus1=p2udm6552.1.2 bus2=p2ulv20083.1.2 switch=n enabled=y phases=2 Linecode=1P_UG_AL_4/0_Sweetbriar_2

New Line.l(r:p2udm6552-p2udt1846lv) Units=km Length=0.00979325 bus1=p2udt1846lv.1.2 bus2=p2udm6552.1.2 switch=n enabled=y phases=2 Linecode=1P_UG_AL_4/0_Sweetbriar_2

New Line.l(r:p2udm6553-p2ulv20080) Units=km Length=0.0159031 bus1=p2udm6553.1.2 bus2=p2ulv20080.1.2 switch=n enabled=y phases=2 Linecode=1P_UG_AL_1/0_Brenau_2

New Line.l(r:p2udm6553-p2udt1846lv) Units=km Length=0.00979161 bus1=p2udt1846lv.1.2 bus2=p2udm6553.1.2 switch=n enabled=y phases=2 Linecode=1P_UG_AL_1/0_Brenau_2

New Line.l(r:p2udt1850lv-p2ulv45224) Units=km Length=0.0124283 bus1=p2udt1850lv.1.2 bus2=p2ulv45224.1.2 switch=n enabled=y phases=2 Linecode=1P_UG_AL_1/0_Brenau_2

New Line.l(r:p2udt1850lv-p2ulv45234) Units=km Length=0.0100345 bus1=p2udt1850lv.1.2 bus2=p2ulv45234.1.2 switch=n enabled=y phases=2 Linecode=1P_UG_AL_1/0_Brenau_2

New Line.l(r:p2udm6573-p2ulv3771) Units=km Length=0.00919629 bus1=p2udm6573.1.2 bus2=p2ulv3771.1.2 switch=n enabled=y phases=2 Linecode=1P_UG_AL_4/0_Sweetbriar_2

New Line.l(r:p2udm6573-p2ulv45223) Units=km Length=0.0127728 bus1=p2udm6573.1.2 bus2=p2ulv45223.1.2 switch=n enabled=y phases=2 Linecode=1P_UG_AL_1/0_Brenau_2

New Line.l(r:p2udm6573-p2udt1850lv) Units=km Length=0.00982448 bus1=p2udt1850lv.1.2 bus2=p2udm6573.1.2 switch=n enabled=y phases=2 Linecode=1P_UG_AL_4/0_Sweetbriar_2

New Line.l(r:p2udm6576-p2ulv45232) Units=km Length=0.0101171 bus1=p2udm6576.1.2 bus2=p2ulv45232.1.2 switch=n enabled=y phases=2 Linecode=1P_UG_AL_1/0_Brenau_2

New Line.l(r:p2udm6576-p2udt1850lv) Units=km Length=0.0196572 bus1=p2udt1850lv.1.2 bus2=p2udm6576.1.2 switch=n enabled=y phases=2 Linecode=1P_UG_AL_1/0_Brenau_2

New Line.l(r:p2udt2321lv-p2ulv4825) Units=km Length=0.00931107 bus1=p2udt2321lv.1.2 bus2=p2ulv4825.1.2 switch=n enabled=y phases=2 Linecode=1P_UG_AL_1/0_Brenau_2

New Line.l(r:p2udt2321lv-p2ulv45174) Units=km Length=0.012092 bus1=p2udt2321lv.1.2 bus2=p2ulv45174.1.2 switch=n enabled=y phases=2 Linecode=1P_UG_AL_2/0_Converse_2

New Line.l(r:p2udm8198-p2ulv44779) Units=km Length=0.00872929 bus1=p2udm8198.1.2 bus2=p2ulv44779.1.2 switch=n enabled=y phases=2 Linecode=1P_UG_AL_1/0_Brenau_2

New Line.l(r:p2udm8199-p2ulv44783) Units=km Length=0.01415 bus1=p2udm8199.1.2 bus2=p2ulv44783.1.2 switch=n enabled=y phases=2 Linecode=1P_UG_AL_2/0_Converse_2

New Line.l(r:p2udm8198-p2udm8199) Units=km Length=0.0688684 bus1=p2udm8198.1.2 bus2=p2udm8199.1.2 switch=n enabled=y phases=2 Linecode=1P_UG_AL_2/0_Converse_2

New Line.l(r:p2udm8198-p2udt2321lv) Units=km Length=0.00932636 bus1=p2udt2321lv.1.2 bus2=p2udm8198.1.2 switch=n enabled=y phases=2 Linecode=1P_UG_AL_4/0_Sweetbriar_2

New Line.l(r:p2udm8200-p2ulv44793) Units=km Length=0.020046900000000003 bus1=p2udm8200.1.2 bus2=p2ulv44793.1.2 switch=n enabled=y phases=2 Linecode=1P_UG_AL_2/0_Converse_2

New Line.l(r:p2udm8200-p2udt2321lv) Units=km Length=0.00931649 bus1=p2udt2321lv.1.2 bus2=p2udm8200.1.2 switch=n enabled=y phases=2 Linecode=1P_UG_AL_2/0_Converse_2

New Line.l(r:p2udt2721lv-p2ulv20085) Units=km Length=0.0173784 bus1=p2udt2721lv.1.2 bus2=p2ulv20085.1.2 switch=n enabled=y phases=2 Linecode=1P_UG_AL_1/0_Brenau_2

New Line.l(r:p2udt2721lv-p2ulv43482) Units=km Length=0.0157868 bus1=p2udt2721lv.1.2 bus2=p2ulv43482.1.2 switch=n enabled=y phases=2 Linecode=1P_UG_AL_1/0_Brenau_2

New Line.l(r:p2udm9417-p2ulv5802) Units=km Length=0.0133506 bus1=p2udm9417.1.2 bus2=p2ulv5802.1.2 switch=n enabled=y phases=2 Linecode=1P_UG_AL_4/0_Sweetbriar_2

New Line.l(r:p2udm9417-p2ulv20086) Units=km Length=0.0171491 bus1=p2udm9417.1.2 bus2=p2ulv20086.1.2 switch=n enabled=y phases=2 Linecode=1P_UG_AL_1/0_Brenau_2

New Line.l(r:p2udm9417-p2udt2721lv) Units=km Length=0.00979161 bus1=p2udt2721lv.1.2 bus2=p2udm9417.1.2 switch=n enabled=y phases=2 Linecode=1P_UG_AL_4/0_Sweetbriar_2

New Line.l(r:p2udm9421-p2ulv20121) Units=km Length=0.0130918 bus1=p2udm9421.1.2 bus2=p2ulv20121.1.2 switch=n enabled=y phases=2 Linecode=1P_UG_AL_1/0_Brenau_2

New Line.l(r:p2udm9420-p2ulv20087) Units=km Length=0.0195751 bus1=p2udm9420.1.2 bus2=p2ulv20087.1.2 switch=n enabled=y phases=2 Linecode=1P_UG_AL_1/0_Brenau_2

New Line.l(r:p2udm9420-p2udm9421) Units=km Length=0.00978174 bus1=p2udm9421.1.2 bus2=p2udm9420.1.2 switch=n enabled=y phases=2 Linecode=1P_UG_AL_1/0_Brenau_2

New Line.l(r:p2udm9421-p2udt2721lv) Units=km Length=0.00979325 bus1=p2udt2721lv.1.2 bus2=p2udm9421.1.2 switch=n enabled=y phases=2 Linecode=1P_UG_AL_2/0_Converse_2

New Line.l(r:p2udt2826lv-p2ulv16873) Units=km Length=0.0133956 bus1=p2udt2826lv.1.2 bus2=p2ulv16873.1.2 switch=n enabled=y phases=2 Linecode=1P_UG_AL_1/0_Brenau_2

New Line.l(r:p2udm9765-p2ulv5961) Units=km Length=0.0130719 bus1=p2udm9765.1.2 bus2=p2ulv5961.1.2 switch=n enabled=y phases=2 Linecode=1P_UG_AL_1/0_Brenau_2

New Line.l(r:p2udm9765-p2ulv19014) Units=km Length=0.0106427 bus1=p2udm9765.1.2 bus2=p2ulv19014.1.2 switch=n enabled=y phases=2 Linecode=1P_UG_AL_1/0_Brenau_2

New Line.l(r:p2udm9770-p2ulv27206) Units=km Length=0.0129174 bus1=p2udm9770.1.2 bus2=p2ulv27206.1.2 switch=n enabled=y phases=2 Linecode=1P_UG_AL_1/0_Brenau_2

New Line.l(r:p2udm9765-p2udm9770) Units=km Length=0.00995436 bus1=p2udm9765.1.2 bus2=p2udm9770.1.2 switch=n enabled=y phases=2 Linecode=1P_UG_AL_1/0_Brenau_2

New Line.l(r:p2udm9765-p2udt2826lv) Units=km Length=0.009965870000000002 bus1=p2udt2826lv.1.2 bus2=p2udm9765.1.2 switch=n enabled=y phases=2 Linecode=1P_UG_AL_4/0_Sweetbriar_2

New Line.l(r:p2udm9767-p2ulv18665) Units=km Length=0.0132855 bus1=p2udm9767.1.2 bus2=p2ulv18665.1.2 switch=n enabled=y phases=2 Linecode=1P_UG_AL_2/0_Converse_2

New Line.l(r:p2udm9767-p2ulv19023) Units=km Length=0.0156253 bus1=p2udm9767.1.2 bus2=p2ulv19023.1.2 switch=n enabled=y phases=2 Linecode=1P_UG_AL_1/0_Brenau_2

New Line.l(r:p2udm9767-p2udt2826lv) Units=km Length=0.00995436 bus1=p2udt2826lv.1.2 bus2=p2udm9767.1.2 switch=n enabled=y phases=2 Linecode=1P_UG_AL_4/0_Sweetbriar_2

New Line.l(r:p2udt3133lv-p2ulv45320) Units=km Length=0.0105897 bus1=p2udt3133lv.1.2 bus2=p2ulv45320.1.2 switch=n enabled=y phases=2 Linecode=1P_UG_AL_1/0_Brenau_2

New Line.l(r:p2udm10751-p2ulv6844) Units=km Length=0.0111171 bus1=p2udm10751.1.2 bus2=p2ulv6844.1.2 switch=n enabled=y phases=2 Linecode=1P_UG_AL_1/0_Brenau_2

New Line.l(r:p2udm10751-p2ulv15561) Units=km Length=0.0104878 bus1=p2udm10751.1.2 bus2=p2ulv15561.1.2 switch=n enabled=y phases=2 Linecode=1P_UG_AL_1/0_Brenau_2

New Line.l(r:p2udm10754-p2ulv45315) Units=km Length=0.00934298 bus1=p2udm10754.1.2 bus2=p2ulv45315.1.2 switch=n enabled=y phases=2 Linecode=1P_UG_AL_1/0_Brenau_2

New Line.l(r:p2udm10751-p2udm10754) Units=km Length=0.009642 bus1=p2udm10751.1.2 bus2=p2udm10754.1.2 switch=n enabled=y phases=2 Linecode=1P_UG_AL_1/0_Brenau_2

New Line.l(r:p2udm10751-p2udt3133lv) Units=km Length=0.00965022 bus1=p2udt3133lv.1.2 bus2=p2udm10751.1.2 switch=n enabled=y phases=2 Linecode=1P_UG_AL_4/0_Sweetbriar_2

New Line.l(r:p2udm10752-p2ulv15558) Units=km Length=0.0143897 bus1=p2udm10752.1.2 bus2=p2ulv15558.1.2 switch=n enabled=y phases=2 Linecode=1P_UG_AL_1/0_Brenau_2

New Line.l(r:p2udm10755-p2ulv45319) Units=km Length=0.0101261 bus1=p2udm10755.1.2 bus2=p2ulv45319.1.2 switch=n enabled=y phases=2 Linecode=1P_UG_AL_1/0_Brenau_2

New Line.l(r:p2udm10752-p2udm10755) Units=km Length=0.009651870000000002 bus1=p2udm10752.1.2 bus2=p2udm10755.1.2 switch=n enabled=y phases=2 Linecode=1P_UG_AL_1/0_Brenau_2

New Line.l(r:p2udm10752-p2udt3133lv) Units=km Length=0.00964036 bus1=p2udt3133lv.1.2 bus2=p2udm10752.1.2 switch=n enabled=y phases=2 Linecode=1P_UG_AL_1/0_Brenau_2

New Line.l(r:p2udt3634lv-p2ulv20173) Units=km Length=0.0139637 bus1=p2udt3634lv.1.2 bus2=p2ulv20173.1.2 switch=n enabled=y phases=2 Linecode=1P_UG_AL_1/0_Brenau_2

New Line.l(r:p2udm12323-p2ulv20171) Units=km Length=0.00913337 bus1=p2udm12323.1.2 bus2=p2ulv20171.1.2 switch=n enabled=y phases=2 Linecode=1P_UG_AL_1/0_Brenau_2

New Line.l(r:p2udm12323-p2ulv20172) Units=km Length=0.013764 bus1=p2udm12323.1.2 bus2=p2ulv20172.1.2 switch=n enabled=y phases=2 Linecode=1P_UG_AL_1/0_Brenau_2

New Line.l(r:p2udm12328-p2ulv42011) Units=km Length=0.00992549 bus1=p2udm12328.1.2 bus2=p2ulv42011.1.2 switch=n enabled=y phases=2 Linecode=1P_UG_AL_1/0_Brenau_2

New Line.l(r:p2udm12323-p2udm12328) Units=km Length=0.00840572 bus1=p2udm12323.1.2 bus2=p2udm12328.1.2 switch=n enabled=y phases=2 Linecode=1P_UG_AL_1/0_Brenau_2

New Line.l(r:p2udm12323-p2udt3634lv) Units=km Length=0.00841559 bus1=p2udt3634lv.1.2 bus2=p2udm12323.1.2 switch=n enabled=y phases=2 Linecode=1P_UG_AL_4/0_Sweetbriar_2

New Line.l(r:p2udm12326-p2ulv20174) Units=km Length=0.00856085 bus1=p2udm12326.1.2 bus2=p2ulv20174.1.2 switch=n enabled=y phases=2 Linecode=1P_UG_AL_1/0_Brenau_2

New Line.l(r:p2udm12320-p2ulv8036) Units=km Length=0.0326457 bus1=p2udm12320.1.2 bus2=p2ulv8036.1.2 switch=n enabled=y phases=2 Linecode=1P_UG_AL_1/0_Brenau_2

New Line.l(r:p2udm12320-p2ulv20175) Units=km Length=0.00884604 bus1=p2udm12320.1.2 bus2=p2ulv20175.1.2 switch=n enabled=y phases=2 Linecode=1P_UG_AL_1/0_Brenau_2

New Line.l(r:p2udm12320-p2udm12326) Units=km Length=0.00882001 bus1=p2udm12326.1.2 bus2=p2udm12320.1.2 switch=n enabled=y phases=2 Linecode=1P_UG_AL_1/0_Brenau_2

New Line.l(r:p2udm12321-p2ulv18715) Units=km Length=0.0048006 bus1=p2udm12321.1.2 bus2=p2ulv18715.1.2 switch=n enabled=y phases=2 Linecode=1P_UG_AL_1/0_Brenau_2

New Line.l(r:p2udm12321-p2ulv18728) Units=km Length=0.004524790000000001 bus1=p2udm12321.1.2 bus2=p2ulv18728.1.2 switch=n enabled=y phases=2 Linecode=1P_UG_AL_1/0_Brenau_2

New Line.l(r:p2udm12321-p2udm12326) Units=km Length=0.00977188 bus1=p2udm12326.1.2 bus2=p2udm12321.1.2 switch=n enabled=y phases=2 Linecode=1P_UG_AL_1/0_Brenau_2

New Line.l(r:p2udm12326-p2udt3634lv) Units=km Length=0.00840572 bus1=p2udt3634lv.1.2 bus2=p2udm12326.1.2 switch=n enabled=y phases=2 Linecode=1P_UG_AL_4/0_Sweetbriar_2

New Line.l(r:p2udt3666lv-p2ulv13627) Units=km Length=0.0154024 bus1=p2udt3666lv.1.2 bus2=p2ulv13627.1.2 switch=n enabled=y phases=2 Linecode=1P_UG_AL_1/0_Brenau_2

New Line.l(r:p2udm12459-p2ulv8092) Units=km Length=0.0180017 bus1=p2udm12459.1.2 bus2=p2ulv8092.1.2 switch=n enabled=y phases=2 Linecode=1P_UG_AL_1/0_Brenau_2

New Line.l(r:p2udm12459-p2ulv17460) Units=km Length=0.0101331 bus1=p2udm12459.1.2 bus2=p2ulv17460.1.2 switch=n enabled=y phases=2 Linecode=1P_UG_AL_1/0_Brenau_2

New Line.l(r:p2udm12459-p2udt3666lv) Units=km Length=0.00991326 bus1=p2udt3666lv.1.2 bus2=p2udm12459.1.2 switch=n enabled=y phases=2 Linecode=1P_UG_AL_1/0_Brenau_2

New Line.l(r:p2udm12460-p2ulv13626) Units=km Length=0.0168352 bus1=p2udm12460.1.2 bus2=p2ulv13626.1.2 switch=n enabled=y phases=2 Linecode=1P_UG_AL_1/0_Brenau_2

New Line.l(r:p2udm12460-p2ulv17461) Units=km Length=0.00965324 bus1=p2udm12460.1.2 bus2=p2ulv17461.1.2 switch=n enabled=y phases=2 Linecode=1P_UG_AL_1/0_Brenau_2

New Line.l(r:p2udm12464-p2ulv45321) Units=km Length=0.0091503 bus1=p2udm12464.1.2 bus2=p2ulv45321.1.2 switch=n enabled=y phases=2 Linecode=1P_UG_AL_4/0_Sweetbriar_2

New Line.l(r:p2udm12460-p2udm12464) Units=km Length=0.0198183 bus1=p2udm12460.1.2 bus2=p2udm12464.1.2 switch=n enabled=y phases=2 Linecode=1P_UG_AL_4/0_Sweetbriar_2

New Line.l(r:p2udm12460-p2udt3666lv) Units=km Length=0.0099149 bus1=p2udt3666lv.1.2 bus2=p2udm12460.1.2 switch=n enabled=y phases=2 Linecode=1P_UG_AL_4/0_Sweetbriar_2

New Line.l(r:p2udt3693lv-p2ulv20179) Units=km Length=0.013021 bus1=p2udt3693lv.1.2 bus2=p2ulv20179.1.2 switch=n enabled=y phases=2 Linecode=1P_UG_AL_1/0_Brenau_2

New Line.l(r:p2udt3693lv-p2ulv20468) Units=km Length=0.0414324 bus1=p2udt3693lv.1.2 bus2=p2ulv20468.1.2 switch=n enabled=y phases=2 Linecode=1P_UG_AL_1/0_Brenau_2

New Line.l(r:p2udm12559-p2ulv8143) Units=km Length=0.0346851 bus1=p2udm12559.1.2 bus2=p2ulv8143.1.2 switch=n enabled=y phases=2 Linecode=1P_UG_AL_1/0_Brenau_2

New Line.l(r:p2udm12559-p2ulv20178) Units=km Length=0.0107576 bus1=p2udm12559.1.2 bus2=p2ulv20178.1.2 switch=n enabled=y phases=2 Linecode=1P_UG_AL_1/0_Brenau_2

New Line.l(r:p2udm12559-p2udt3693lv) Units=km Length=0.00945788 bus1=p2udt3693lv.1.2 bus2=p2udm12559.1.2 switch=n enabled=y phases=2 Linecode=1P_UG_AL_2/0_Converse_2

New Line.l(r:p2udm12562-p2ulv20180) Units=km Length=0.0111934 bus1=p2udm12562.1.2 bus2=p2ulv20180.1.2 switch=n enabled=y phases=2 Linecode=1P_UG_AL_1/0_Brenau_2

New Line.l(r:p2udm12563-p2ulv20182) Units=km Length=0.011383 bus1=p2udm12563.1.2 bus2=p2ulv20182.1.2 switch=n enabled=y phases=2 Linecode=1P_UG_AL_1/0_Brenau_2

New Line.l(r:p2udm12562-p2udm12563) Units=km Length=0.00944966 bus1=p2udm12562.1.2 bus2=p2udm12563.1.2 switch=n enabled=y phases=2 Linecode=1P_UG_AL_1/0_Brenau_2

New Line.l(r:p2udm12562-p2udt3693lv) Units=km Length=0.00945952 bus1=p2udt3693lv.1.2 bus2=p2udm12562.1.2 switch=n enabled=y phases=2 Linecode=1P_UG_AL_2/0_Converse_2

New Line.l(r:p2udt3725lv-p2ulv20068) Units=km Length=0.010465 bus1=p2udt3725lv.1.2 bus2=p2ulv20068.1.2 switch=n enabled=y phases=2 Linecode=1P_UG_AL_1/0_Brenau_2

New Line.l(r:p2udt3725lv-p2ulv20095) Units=km Length=0.0197388 bus1=p2udt3725lv.1.2 bus2=p2ulv20095.1.2 switch=n enabled=y phases=2 Linecode=1P_UG_AL_1/0_Brenau_2

New Line.l(r:p2udm12669-p2ulv8194) Units=km Length=0.0408977 bus1=p2udm12669.1.2 bus2=p2ulv8194.1.2 switch=n enabled=y phases=2 Linecode=1P_UG_AL_1/0_Brenau_2

New Line.l(r:p2udm12669-p2ulv20067) Units=km Length=0.0106419 bus1=p2udm12669.1.2 bus2=p2ulv20067.1.2 switch=n enabled=y phases=2 Linecode=1P_UG_AL_1/0_Brenau_2

New Line.l(r:p2udm12669-p2udt3725lv) Units=km Length=0.00965022 bus1=p2udt3725lv.1.2 bus2=p2udm12669.1.2 switch=n enabled=y phases=2 Linecode=1P_UG_AL_1/0_Brenau_2

New Line.l(r:p2udm12672-p2ulv20094) Units=km Length=0.0199705 bus1=p2udm12672.1.2 bus2=p2ulv20094.1.2 switch=n enabled=y phases=2 Linecode=1P_UG_AL_1/0_Brenau_2

New Line.l(r:p2udm12672-p2udt3725lv) Units=km Length=0.009642 bus1=p2udt3725lv.1.2 bus2=p2udm12672.1.2 switch=n enabled=y phases=2 Linecode=1P_UG_AL_1/0_Brenau_2

New Line.l(r:p2udt3732lv-p2ulv8207) Units=km Length=0.0108034 bus1=p2udt3732lv.1.2 bus2=p2ulv8207.1.2 switch=n enabled=y phases=2 Linecode=1P_OH_AL_2/0_Rucina_2

New Line.l(r:p2udt3732lv-p2ulv44728) Units=km Length=0.0300047 bus1=p2udt3732lv.1.2 bus2=p2ulv44728.1.2 switch=n enabled=y phases=2 Linecode=1P_OH_AL_4/0_Zuzara_2

New Line.l(r:p2udt3732lv-p2ulv45184) Units=km Length=0.0140648 bus1=p2udt3732lv.1.2 bus2=p2ulv45184.1.2 switch=n enabled=y phases=2 Linecode=1P_OH_AL_2/0_Rucina_2

New Line.l(r:p2udm12696-p2ulv45185) Units=km Length=0.0125972 bus1=p2udm12696.1.2 bus2=p2ulv45185.1.2 switch=n enabled=y phases=2 Linecode=1P_OH_AL_2/0_Rucina_2

New Line.l(r:p2udm12696-p2ulv45186) Units=km Length=0.0119412 bus1=p2udm12696.1.2 bus2=p2ulv45186.1.2 switch=n enabled=y phases=2 Linecode=1P_OH_AL_2/0_Rucina_2

New Line.l(r:p2udm12696-p2ulv45839) Units=km Length=0.0119451 bus1=p2udm12696.1.2 bus2=p2ulv45839.1.2 switch=n enabled=y phases=2 Linecode=1P_OH_AL_2/0_Rucina_2

New Line.l(r:p2udm12696-p2udt3732lv) Units=km Length=0.0192429 bus1=p2udt3732lv.1.2 bus2=p2udm12696.1.2 switch=n enabled=y phases=2 Linecode=1P_OH_AL_2/0_Rucina_2

New Line.l(r:p2udm12698-p2ulv45212) Units=km Length=0.0134456 bus1=p2udm12698.1.2 bus2=p2ulv45212.1.2 switch=n enabled=y phases=2 Linecode=1P_OH_AL_2/0_Rucina_2

New Line.l(r:p2udm12698-p2udt3732lv) Units=km Length=0.0192528 bus1=p2udt3732lv.1.2 bus2=p2udm12698.1.2 switch=n enabled=y phases=2 Linecode=1P_OH_AL_2/0_Rucina_2

New Line.l(r:p2udt4054lv-p2ulv9367) Units=km Length=0.010517900000000002 bus1=p2udt4054lv.1.2 bus2=p2ulv9367.1.2 switch=n enabled=y phases=2 Linecode=1P_UG_AL_1/0_Brenau_2

New Line.l(r:p2udm13697-p2ulv9365) Units=km Length=0.0104562 bus1=p2udm13697.1.2 bus2=p2ulv9365.1.2 switch=n enabled=y phases=2 Linecode=1P_UG_AL_4/0_Sweetbriar_2

New Line.l(r:p2udm13696-p2ulv9364) Units=km Length=0.00935988 bus1=p2udm13696.1.2 bus2=p2ulv9364.1.2 switch=n enabled=y phases=2 Linecode=1P_UG_AL_1/0_Brenau_2

New Line.l(r:p2udm13696-p2udm13697) Units=km Length=0.00967324 bus1=p2udm13697.1.2 bus2=p2udm13696.1.2 switch=n enabled=y phases=2 Linecode=1P_UG_AL_1/0_Brenau_2

New Line.l(r:p2udm13697-p2udt4054lv) Units=km Length=0.00966173 bus1=p2udt4054lv.1.2 bus2=p2udm13697.1.2 switch=n enabled=y phases=2 Linecode=1P_UG_AL_4/0_Sweetbriar_2

New Line.l(r:p2udm13699-p2ulv9368) Units=km Length=0.011048 bus1=p2udm13699.1.2 bus2=p2ulv9368.1.2 switch=n enabled=y phases=2 Linecode=1P_UG_AL_1/0_Brenau_2

New Line.l(r:p2udm13700-p2ulv9374) Units=km Length=0.0109163 bus1=p2udm13700.1.2 bus2=p2ulv9374.1.2 switch=n enabled=y phases=2 Linecode=1P_UG_AL_1/0_Brenau_2

New Line.l(r:p2udm13699-p2udm13700) Units=km Length=0.00967324 bus1=p2udm13699.1.2 bus2=p2udm13700.1.2 switch=n enabled=y phases=2 Linecode=1P_UG_AL_1/0_Brenau_2

New Line.l(r:p2udm13699-p2udt4054lv) Units=km Length=0.00967324 bus1=p2udt4054lv.1.2 bus2=p2udm13699.1.2 switch=n enabled=y phases=2 Linecode=1P_UG_AL_1/0_Brenau_2

New Line.l(r:p2udm13704-p2ulv9380) Units=km Length=0.00915677 bus1=p2udm13704.1.2 bus2=p2ulv9380.1.2 switch=n enabled=y phases=2 Linecode=1P_OH_AL_2/0_Rucina_2

New Line.l(r:p2udm13704-p2udt4057lv) Units=km Length=0.0154716 bus1=p2udt4057lv.1.2 bus2=p2udm13704.1.2 switch=n enabled=y phases=2 Linecode=1P_OH_AL_2/0_Rucina_2

New Line.l(r:p2udm13705-p2ulv9382) Units=km Length=0.010204 bus1=p2udm13705.1.2 bus2=p2ulv9382.1.2 switch=n enabled=y phases=2 Linecode=1P_OH_AL_2/0_Rucina_2_2

New Line.l(r:p2udm13705-p2udt4057lv) Units=km Length=0.0154601 bus1=p2udt4057lv.1.2 bus2=p2udm13705.1.2 switch=n enabled=y phases=2 Linecode=1P_OH_AL_2/0_Rucina_2_2

New Line.l(r:p2udt4187lv-p2ulv44787) Units=km Length=0.00944985 bus1=p2udt4187lv.1.2 bus2=p2ulv44787.1.2 switch=n enabled=y phases=2 Linecode=1P_UG_AL_1/0_Brenau_2

New Line.l(r:p2udm14170-p2ulv9772) Units=km Length=0.0143253 bus1=p2udm14170.1.2 bus2=p2ulv9772.1.2 switch=n enabled=y phases=2 Linecode=1P_UG_AL_1/0_Brenau_2

New Line.l(r:p2udm14170-p2ulv44786) Units=km Length=0.0103004 bus1=p2udm14170.1.2 bus2=p2ulv44786.1.2 switch=n enabled=y phases=2 Linecode=1P_UG_AL_1/0_Brenau_2

New Line.l(r:p2udm14170-p2udt4187lv) Units=km Length=0.00976366 bus1=p2udt4187lv.1.2 bus2=p2udm14170.1.2 switch=n enabled=y phases=2 Linecode=1P_UG_AL_4/0_Sweetbriar_2

New Line.l(r:p2udm14173-p2ulv44788) Units=km Length=0.00989237 bus1=p2udm14173.1.2 bus2=p2ulv44788.1.2 switch=n enabled=y phases=2 Linecode=1P_UG_AL_1/0_Brenau_2

New Line.l(r:p2udm14174-p2ulv44789) Units=km Length=0.0100976 bus1=p2udm14174.1.2 bus2=p2ulv44789.1.2 switch=n enabled=y phases=2 Linecode=1P_UG_AL_1/0_Brenau_2

New Line.l(r:p2udm14173-p2udm14174) Units=km Length=0.00976366 bus1=p2udm14173.1.2 bus2=p2udm14174.1.2 switch=n enabled=y phases=2 Linecode=1P_UG_AL_1/0_Brenau_2

New Line.l(r:p2udm14173-p2udt4187lv) Units=km Length=0.00976366 bus1=p2udt4187lv.1.2 bus2=p2udm14173.1.2 switch=n enabled=y phases=2 Linecode=1P_UG_AL_1/0_Brenau_2

New Line.l(r:p2udt4224lv-p2ulv15563) Units=km Length=0.0108337 bus1=p2udt4224lv.1.2 bus2=p2ulv15563.1.2 switch=n enabled=y phases=2 Linecode=1P_UG_AL_1/0_Brenau_2

New Line.l(r:p2udm14275-p2ulv9837) Units=km Length=0.0293669 bus1=p2udm14275.1.2 bus2=p2ulv9837.1.2 switch=n enabled=y phases=2 Linecode=1P_UG_AL_1/0_Brenau_2

New Line.l(r:p2udm14275-p2udt4224lv) Units=km Length=0.00929512 bus1=p2udt4224lv.1.2 bus2=p2udm14275.1.2 switch=n enabled=y phases=2 Linecode=1P_UG_AL_1/0_Brenau_2

New Line.l(r:p2udm14277-p2ulv45261) Units=km Length=0.0153814 bus1=p2udm14277.1.2 bus2=p2ulv45261.1.2 switch=n enabled=y phases=2 Linecode=1P_UG_AL_1/0_Brenau_2

New Line.l(r:p2udm14277-p2ulv45262) Units=km Length=0.010800200000000001 bus1=p2udm14277.1.2 bus2=p2ulv45262.1.2 switch=n enabled=y phases=2 Linecode=1P_UG_AL_1/0_Brenau_2

New Line.l(r:p2udm14277-p2ulv45324) Units=km Length=0.0107474 bus1=p2udm14277.1.2 bus2=p2ulv45324.1.2 switch=n enabled=y phases=2 Linecode=1P_UG_AL_2/0_Converse_2

New Line.l(r:p2udm14277-p2udt4224lv) Units=km Length=0.00930663 bus1=p2udt4224lv.1.2 bus2=p2udm14277.1.2 switch=n enabled=y phases=2 Linecode=1P_UG_AL_4/0_Sweetbriar_2

New Line.l(r:p2udt4228lv-p2ulv28810) Units=km Length=0.0171568 bus1=p2udt4228lv.1.2 bus2=p2ulv28810.1.2 switch=n enabled=y phases=2 Linecode=1P_UG_AL_1/0_Brenau_2

New Line.l(r:p2udt4228lv-p2ulv45289) Units=km Length=0.0126688 bus1=p2udt4228lv.1.2 bus2=p2ulv45289.1.2 switch=n enabled=y phases=2 Linecode=1P_UG_AL_1/0_Brenau_2

New Line.l(r:p2udm14296-p2ulv17454) Units=km Length=0.0173612 bus1=p2udm14296.1.2 bus2=p2ulv17454.1.2 switch=n enabled=y phases=2 Linecode=1P_UG_AL_1/0_Brenau_2

New Line.l(r:p2udm14296-p2ulv45288) Units=km Length=0.0125884 bus1=p2udm14296.1.2 bus2=p2ulv45288.1.2 switch=n enabled=y phases=2 Linecode=1P_UG_AL_1/0_Brenau_2

New Line.l(r:p2udm14297-p2ulv17455) Units=km Length=0.0159925 bus1=p2udm14297.1.2 bus2=p2ulv17455.1.2 switch=n enabled=y phases=2 Linecode=1P_UG_AL_1/0_Brenau_2

New Line.l(r:p2udm14297-p2ulv45285) Units=km Length=0.0121653 bus1=p2udm14297.1.2 bus2=p2ulv45285.1.2 switch=n enabled=y phases=2 Linecode=1P_UG_AL_1/0_Brenau_2

New Line.l(r:p2udm14296-p2udm14297) Units=km Length=0.00937732 bus1=p2udm14296.1.2 bus2=p2udm14297.1.2 switch=n enabled=y phases=2 Linecode=1P_UG_AL_4/0_Sweetbriar_2

New Line.l(r:p2udm14296-p2udt4228lv) Units=km Length=0.00937732 bus1=p2udt4228lv.1.2 bus2=p2udm14296.1.2 switch=n enabled=y phases=2 Linecode=1P_UG_AL_4/0_Sweetbriar_2

New Line.l(r:p2udm14298-p2ulv17457) Units=km Length=0.014444000000000002 bus1=p2udm14298.1.2 bus2=p2ulv17457.1.2 switch=n enabled=y phases=2 Linecode=1P_UG_AL_1/0_Brenau_2

New Line.l(r:p2udm14295-p2ulv9847) Units=km Length=0.012548700000000001 bus1=p2udm14295.1.2 bus2=p2ulv9847.1.2 switch=n enabled=y phases=2 Linecode=1P_UG_AL_1/0_Brenau_2

New Line.l(r:p2udm14295-p2udm14298) Units=km Length=0.00937732 bus1=p2udm14298.1.2 bus2=p2udm14295.1.2 switch=n enabled=y phases=2 Linecode=1P_UG_AL_1/0_Brenau_2

New Line.l(r:p2udm14298-p2udt4228lv) Units=km Length=0.00936745 bus1=p2udt4228lv.1.2 bus2=p2udm14298.1.2 switch=n enabled=y phases=2 Linecode=1P_UG_AL_1/0_Brenau_2

New Line.l(r:p2udt4616lv-p2ulv43596) Units=km Length=0.0107179 bus1=p2udt4616lv.1.2 bus2=p2ulv43596.1.2 switch=n enabled=y phases=2 Linecode=1P_UG_AL_1/0_Brenau_2

New Line.l(r:p2udm15788-p2ulv11268) Units=km Length=0.00937785 bus1=p2udm15788.1.2 bus2=p2ulv11268.1.2 switch=n enabled=y phases=2 Linecode=1P_UG_AL_1/0_Brenau_2

New Line.l(r:p2udm15788-p2udt4616lv) Units=km Length=0.019626 bus1=p2udt4616lv.1.2 bus2=p2udm15788.1.2 switch=n enabled=y phases=2 Linecode=1P_UG_AL_1/0_Brenau_2

New Line.l(r:p2udm15790-p2ulv45155) Units=km Length=0.00996741 bus1=p2udm15790.1.2 bus2=p2ulv45155.1.2 switch=n enabled=y phases=2 Linecode=1P_UG_AL_1/0_Brenau_2

New Line.l(r:p2udm15790-p2ulv46212) Units=km Length=0.0149924 bus1=p2udm15790.1.2 bus2=p2ulv46212.1.2 switch=n enabled=y phases=2 Linecode=1P_UG_AL_1/0_Brenau_2

New Line.l(r:p2udm15790-p2udt4616lv) Units=km Length=0.019626 bus1=p2udt4616lv.1.2 bus2=p2udm15790.1.2 switch=n enabled=y phases=2 Linecode=1P_UG_AL_1/0_Brenau_2

New Line.l(r:p2udt5152lv-p2ulv13624) Units=km Length=0.0096534 bus1=p2udt5152lv.1.2 bus2=p2ulv13624.1.2 switch=n enabled=y phases=2 Linecode=1P_UG_AL_4/0_Sweetbriar_2

New Line.l(r:p2udt5495lv-p2ulv15341) Units=km Length=0.0105177 bus1=p2udt5495lv.1.2 bus2=p2ulv15341.1.2 switch=n enabled=y phases=2 Linecode=1P_UG_AL_1/0_Brenau_2

New Line.l(r:p2udt5495lv-p2ulv20101) Units=km Length=0.009423510000000001 bus1=p2udt5495lv.1.2 bus2=p2ulv20101.1.2 switch=n enabled=y phases=2 Linecode=1P_UG_AL_1/0_Brenau_2

New Line.l(r:p2udm19072-p2ulv15342) Units=km Length=0.0109174 bus1=p2udm19072.1.2 bus2=p2ulv15342.1.2 switch=n enabled=y phases=2 Linecode=1P_UG_AL_1/0_Brenau_2

New Line.l(r:p2udm19072-p2ulv20102) Units=km Length=0.0097053 bus1=p2udm19072.1.2 bus2=p2ulv20102.1.2 switch=n enabled=y phases=2 Linecode=1P_UG_AL_1/0_Brenau_2

New Line.l(r:p2udm19072-p2udt5495lv) Units=km Length=0.00953021 bus1=p2udt5495lv.1.2 bus2=p2udm19072.1.2 switch=n enabled=y phases=2 Linecode=1P_UG_AL_2/0_Converse_2

New Line.l(r:p2udm19073-p2ulv20099) Units=km Length=0.00927272 bus1=p2udm19073.1.2 bus2=p2ulv20099.1.2 switch=n enabled=y phases=2 Linecode=1P_UG_AL_1/0_Brenau_2

New Line.l(r:p2udm19070-p2ulv15340) Units=km Length=0.0100179 bus1=p2udm19070.1.2 bus2=p2ulv15340.1.2 switch=n enabled=y phases=2 Linecode=1P_UG_AL_1/0_Brenau_2

New Line.l(r:p2udm19070-p2udm19073) Units=km Length=0.0190489 bus1=p2udm19073.1.2 bus2=p2udm19070.1.2 switch=n enabled=y phases=2 Linecode=1P_UG_AL_1/0_Brenau_2

New Line.l(r:p2udm19073-p2udt5495lv) Units=km Length=0.0095187 bus1=p2udt5495lv.1.2 bus2=p2udm19073.1.2 switch=n enabled=y phases=2 Linecode=1P_UG_AL_1/0_Brenau_2

New Line.l(r:p2udt5524lv-p2ulv15559) Units=km Length=0.00910519 bus1=p2udt5524lv.1.2 bus2=p2ulv15559.1.2 switch=n enabled=y phases=2 Linecode=1P_UG_AL_4/0_Sweetbriar_2

New Line.l(r:p2udm19188-p2ulv20103) Units=km Length=0.0101263 bus1=p2udm19188.1.2 bus2=p2ulv20103.1.2 switch=n enabled=y phases=2 Linecode=1P_UG_AL_4/0_Sweetbriar_2

New Line.l(r:p2udm19188-p2udt5524lv) Units=km Length=0.0194139 bus1=p2udt5524lv.1.2 bus2=p2udm19188.1.2 switch=n enabled=y phases=2 Linecode=1P_UG_AL_4/0_Sweetbriar_2

New Line.l(r:p2udt5525lv-p2ulv15560) Units=km Length=0.0114051 bus1=p2udt5525lv.1.2 bus2=p2ulv15560.1.2 switch=n enabled=y phases=2 Linecode=1P_UG_AL_4/0_Sweetbriar_2

New Line.l(r:p2udt5526lv-p2ulv17459) Units=km Length=0.0157403 bus1=p2udt5526lv.1.2 bus2=p2ulv17459.1.2 switch=n enabled=y phases=2 Linecode=1P_UG_AL_1/0_Brenau_2

New Line.l(r:p2udm19191-p2ulv17458) Units=km Length=0.0162314 bus1=p2udm19191.1.2 bus2=p2ulv17458.1.2 switch=n enabled=y phases=2 Linecode=1P_UG_AL_1/0_Brenau_2

New Line.l(r:p2udm19195-p2ulv45314) Units=km Length=0.016198500000000005 bus1=p2udm19195.1.2 bus2=p2ulv45314.1.2 switch=n enabled=y phases=2 Linecode=1P_UG_AL_1/0_Brenau_2

New Line.l(r:p2udm19191-p2udm19195) Units=km Length=0.00937568 bus1=p2udm19191.1.2 bus2=p2udm19195.1.2 switch=n enabled=y phases=2 Linecode=1P_UG_AL_1/0_Brenau_2

New Line.l(r:p2udm19191-p2udt5526lv) Units=km Length=0.0187448 bus1=p2udt5526lv.1.2 bus2=p2udm19191.1.2 switch=n enabled=y phases=2 Linecode=1P_UG_AL_1/0_Brenau_2

New Line.l(r:p2udm19194-p2ulv45282) Units=km Length=0.00998896 bus1=p2udm19194.1.2 bus2=p2ulv45282.1.2 switch=n enabled=y phases=2 Linecode=1P_UG_AL_1/0_Brenau_2

New Line.l(r:p2udm19190-p2ulv15562) Units=km Length=0.0115988 bus1=p2udm19190.1.2 bus2=p2ulv15562.1.2 switch=n enabled=y phases=2 Linecode=1P_UG_AL_4/0_Sweetbriar_2

New Line.l(r:p2udm19193-p2ulv45277) Units=km Length=0.0101804 bus1=p2udm19193.1.2 bus2=p2ulv45277.1.2 switch=n enabled=y phases=2 Linecode=1P_UG_AL_1/0_Brenau_2

New Line.l(r:p2udm19190-p2udm19193) Units=km Length=0.0118306 bus1=p2udm19190.1.2 bus2=p2udm19193.1.2 switch=n enabled=y phases=2 Linecode=1P_UG_AL_1/0_Brenau_2

New Line.l(r:p2udm19190-p2udm19194) Units=km Length=0.0117437 bus1=p2udm19194.1.2 bus2=p2udm19190.1.2 switch=n enabled=y phases=2 Linecode=1P_UG_AL_4/0_Sweetbriar_2

New Line.l(r:p2udm19194-p2udt5526lv) Units=km Length=0.00936745 bus1=p2udt5526lv.1.2 bus2=p2udm19194.1.2 switch=n enabled=y phases=2 Linecode=1P_UG_AL_4/0_Sweetbriar_2

New Line.l(r:p2udt5527lv-p2ulv15568) Units=km Length=0.011110400000000001 bus1=p2udt5527lv.1.2 bus2=p2ulv15568.1.2 switch=n enabled=y phases=2 Linecode=1P_UG_AL_1/0_Brenau_2

New Line.l(r:p2udm19197-p2ulv15567) Units=km Length=0.010827 bus1=p2udm19197.1.2 bus2=p2ulv15567.1.2 switch=n enabled=y phases=2 Linecode=1P_UG_AL_1/0_Brenau_2

New Line.l(r:p2udm19197-p2ulv15577) Units=km Length=0.00990928 bus1=p2udm19197.1.2 bus2=p2ulv15577.1.2 switch=n enabled=y phases=2 Linecode=1P_UG_AL_2/0_Converse_2

New Line.l(r:p2udm19197-p2udt5527lv) Units=km Length=0.00936745 bus1=p2udt5527lv.1.2 bus2=p2udm19197.1.2 switch=n enabled=y phases=2 Linecode=1P_UG_AL_4/0_Sweetbriar_2

New Line.l(r:p2udm19199-p2ulv15569) Units=km Length=0.0102718 bus1=p2udm19199.1.2 bus2=p2ulv15569.1.2 switch=n enabled=y phases=2 Linecode=1P_UG_AL_1/0_Brenau_2

New Line.l(r:p2udm19196-p2ulv15564) Units=km Length=0.010729600000000002 bus1=p2udm19196.1.2 bus2=p2ulv15564.1.2 switch=n enabled=y phases=2 Linecode=1P_UG_AL_1/0_Brenau_2

New Line.l(r:p2udm19196-p2udm19199) Units=km Length=0.00936745 bus1=p2udm19199.1.2 bus2=p2udm19196.1.2 switch=n enabled=y phases=2 Linecode=1P_UG_AL_1/0_Brenau_2

New Line.l(r:p2udm19199-p2udt5527lv) Units=km Length=0.00937897 bus1=p2udt5527lv.1.2 bus2=p2udm19199.1.2 switch=n enabled=y phases=2 Linecode=1P_UG_AL_2/0_Converse_2

New Line.l(r:p2udt5528lv-p2ulv15566) Units=km Length=0.0107221 bus1=p2udt5528lv.1.2 bus2=p2ulv15566.1.2 switch=n enabled=y phases=2 Linecode=1P_UG_AL_1/0_Brenau_2

New Line.l(r:p2udt5528lv-p2ulv15575) Units=km Length=0.00969394 bus1=p2udt5528lv.1.2 bus2=p2ulv15575.1.2 switch=n enabled=y phases=2 Linecode=1P_UG_AL_4/0_Sweetbriar_2

New Line.l(r:p2udt5529lv-p2ulv20111) Units=km Length=0.0122042 bus1=p2udt5529lv.1.2 bus2=p2ulv20111.1.2 switch=n enabled=y phases=2 Linecode=1P_UG_AL_1/0_Brenau_2

New Line.l(r:p2udm19205-p2ulv20110) Units=km Length=0.0120473 bus1=p2udm19205.1.2 bus2=p2ulv20110.1.2 switch=n enabled=y phases=2 Linecode=1P_UG_AL_1/0_Brenau_2

New Line.l(r:p2udm19203-p2ulv15570) Units=km Length=0.010096 bus1=p2udm19203.1.2 bus2=p2ulv15570.1.2 switch=n enabled=y phases=2 Linecode=1P_UG_AL_4/0_Sweetbriar_2

New Line.l(r:p2udm19203-p2ulv20109) Units=km Length=0.0145296 bus1=p2udm19203.1.2 bus2=p2ulv20109.1.2 switch=n enabled=y phases=2 Linecode=1P_UG_AL_1/0_Brenau_2

New Line.l(r:p2udm19203-p2udm19205) Units=km Length=0.00989518 bus1=p2udm19205.1.2 bus2=p2udm19203.1.2 switch=n enabled=y phases=2 Linecode=1P_UG_AL_4/0_Sweetbriar_2

New Line.l(r:p2udm19205-p2udt5529lv) Units=km Length=0.00988367 bus1=p2udt5529lv.1.2 bus2=p2udm19205.1.2 switch=n enabled=y phases=2 Linecode=1P_UG_AL_4/0_Sweetbriar_2

New Line.l(r:p2udm19207-p2ulv20114) Units=km Length=0.0116393 bus1=p2udm19207.1.2 bus2=p2ulv20114.1.2 switch=n enabled=y phases=2 Linecode=1P_UG_AL_1/0_Brenau_2

New Line.l(r:p2udm19207-p2udt5529lv) Units=km Length=0.0197887 bus1=p2udt5529lv.1.2 bus2=p2udm19207.1.2 switch=n enabled=y phases=2 Linecode=1P_UG_AL_1/0_Brenau_2

New Line.l(r:p2udt5530lv-p2ulv15572) Units=km Length=0.00983136 bus1=p2udt5530lv.1.2 bus2=p2ulv15572.1.2 switch=n enabled=y phases=2 Linecode=1P_UG_AL_4/0_Sweetbriar_2

New Line.l(r:p2udt5530lv-p2ulv20112) Units=km Length=0.0104166 bus1=p2udt5530lv.1.2 bus2=p2ulv20112.1.2 switch=n enabled=y phases=2 Linecode=1P_UG_AL_4/0_Sweetbriar_2

New Line.l(r:p2udt5533lv-p2ulv15578) Units=km Length=0.012593700000000001 bus1=p2udt5533lv.1.2 bus2=p2ulv15578.1.2 switch=n enabled=y phases=2 Linecode=1P_OH_AL_2/0_Rucina_2

New Line.l(r:p2udt5792lv-p2ulv16871) Units=km Length=0.0101322 bus1=p2udt5792lv.1.2 bus2=p2ulv16871.1.2 switch=n enabled=y phases=2 Linecode=1P_UG_AL_4/0_Sweetbriar_2

New Line.l(r:p2udt5792lv-p2ulv27222) Units=km Length=0.0115192 bus1=p2udt5792lv.1.2 bus2=p2ulv27222.1.2 switch=n enabled=y phases=2 Linecode=1P_UG_AL_1/0_Brenau_2

New Line.l(r:p2udm20174-p2ulv27214) Units=km Length=0.013277 bus1=p2udm20174.1.2 bus2=p2ulv27214.1.2 switch=n enabled=y phases=2 Linecode=1P_UG_AL_2/0_Converse_2

New Line.l(r:p2udm20174-p2udt5792lv) Units=km Length=0.009933000000000003 bus1=p2udt5792lv.1.2 bus2=p2udm20174.1.2 switch=n enabled=y phases=2 Linecode=1P_UG_AL_2/0_Converse_2

New Line.l(r:p2udt5793lv-p2ulv27215) Units=km Length=0.00947647 bus1=p2udt5793lv.1.2 bus2=p2ulv27215.1.2 switch=n enabled=y phases=2 Linecode=1P_UG_AL_2/0_Converse_2

New Line.l(r:p2udm20176-p2ulv16872) Units=km Length=0.0101173 bus1=p2udm20176.1.2 bus2=p2ulv16872.1.2 switch=n enabled=y phases=2 Linecode=1P_UG_AL_1/0_Brenau_2

New Line.l(r:p2udm20176-p2ulv27216) Units=km Length=0.0107698 bus1=p2udm20176.1.2 bus2=p2ulv27216.1.2 switch=n enabled=y phases=2 Linecode=1P_UG_AL_1/0_Brenau_2

New Line.l(r:p2udm20176-p2ulv27217) Units=km Length=0.0147891 bus1=p2udm20176.1.2 bus2=p2ulv27217.1.2 switch=n enabled=y phases=2 Linecode=1P_UG_AL_1/0_Brenau_2

New Line.l(r:p2udm20181-p2ulv27218) Units=km Length=0.0151053 bus1=p2udm20181.1.2 bus2=p2ulv27218.1.2 switch=n enabled=y phases=2 Linecode=1P_UG_AL_1/0_Brenau_2

New Line.l(r:p2udm20176-p2udm20181) Units=km Length=0.00992477 bus1=p2udm20176.1.2 bus2=p2udm20181.1.2 switch=n enabled=y phases=2 Linecode=1P_UG_AL_1/0_Brenau_2

New Line.l(r:p2udm20176-p2udt5793lv) Units=km Length=0.00993463 bus1=p2udt5793lv.1.2 bus2=p2udm20176.1.2 switch=n enabled=y phases=2 Linecode=1P_UG_AL_4/0_Sweetbriar_2

New Line.l(r:p2udm20177-p2ulv19040) Units=km Length=0.013311 bus1=p2udm20177.1.2 bus2=p2ulv19040.1.2 switch=n enabled=y phases=2 Linecode=1P_UG_AL_1/0_Brenau_2

New Line.l(r:p2udm20177-p2udt5793lv) Units=km Length=0.0198676 bus1=p2udt5793lv.1.2 bus2=p2udm20177.1.2 switch=n enabled=y phases=2 Linecode=1P_UG_AL_1/0_Brenau_2

New Line.l(r:p2udt5801lv-p2ulv16882) Units=km Length=0.00847434 bus1=p2udt5801lv.1.2 bus2=p2ulv16882.1.2 switch=n enabled=y phases=2 Linecode=1P_OH_AL_2/0_Rucina_2

New Line.l(r:p2udt5801lv-p2ulv18695) Units=km Length=0.0119958 bus1=p2udt5801lv.1.2 bus2=p2ulv18695.1.2 switch=n enabled=y phases=2 Linecode=1P_OH_AL_2/0_Rucina_2

New Line.l(r:p2udt5801lv-p2ulv28709) Units=km Length=0.00917157 bus1=p2udt5801lv.1.2 bus2=p2ulv28709.1.2 switch=n enabled=y phases=2 Linecode=1P_OH_AL_2/0_Rucina_2

New Line.l(r:p2udt5801lv-p2ulv46153) Units=km Length=0.0370672 bus1=p2udt5801lv.1.2 bus2=p2ulv46153.1.2 switch=n enabled=y phases=2 Linecode=1P_OH_AL_4/0_Zuzara_2

New Line.l(r:p2udt5802lv-p2ulv18698) Units=km Length=0.0369146 bus1=p2udt5802lv.1.2 bus2=p2ulv18698.1.2 switch=n enabled=y phases=2 Linecode=1P_OH_AL_4/0_Zuzara_2

New Line.l(r:p2udt5802lv-p2ulv18699) Units=km Length=0.0319514 bus1=p2udt5802lv.1.2 bus2=p2ulv18699.1.2 switch=n enabled=y phases=2 Linecode=1P_OH_AL_4/0_Zuzara_2

New Line.l(r:p2udt5802lv-p2ulv18700) Units=km Length=0.00937369 bus1=p2udt5802lv.1.2 bus2=p2ulv18700.1.2 switch=n enabled=y phases=2 Linecode=1P_OH_AL_2/0_Rucina_2

New Line.l(r:p2udm20216-p2ulv16883) Units=km Length=0.00825048 bus1=p2udm20216.1.2 bus2=p2ulv16883.1.2 switch=n enabled=y phases=2 Linecode=1P_OH_AL_2/0_Rucina_2

New Line.l(r:p2udm20216-p2udt5802lv) Units=km Length=0.00727305 bus1=p2udt5802lv.1.2 bus2=p2udm20216.1.2 switch=n enabled=y phases=2 Linecode=1P_OH_AL_2/0_Rucina_2

New Line.l(r:p2udm20217-p2ulv18697) Units=km Length=0.00980326 bus1=p2udm20217.1.2 bus2=p2ulv18697.1.2 switch=n enabled=y phases=2 Linecode=1P_OH_AL_2/0_Rucina_2

New Line.l(r:p2udm20217-p2ulv28708) Units=km Length=0.0109128 bus1=p2udm20217.1.2 bus2=p2ulv28708.1.2 switch=n enabled=y phases=2 Linecode=1P_OH_AL_2/0_Rucina_2

New Line.l(r:p2udm20217-p2udt5802lv) Units=km Length=0.0189208 bus1=p2udt5802lv.1.2 bus2=p2udm20217.1.2 switch=n enabled=y phases=2 Linecode=1P_OH_AL_2/0_Rucina_2

New Line.l(r:p2udt5872lv-p2ulv18740) Units=km Length=0.0101401 bus1=p2udt5872lv.1.2 bus2=p2ulv18740.1.2 switch=n enabled=y phases=2 Linecode=1P_UG_AL_4/0_Sweetbriar_2

New Line.l(r:p2udt5872lv-p2ulv40389) Units=km Length=0.0100233 bus1=p2udt5872lv.1.2 bus2=p2ulv40389.1.2 switch=n enabled=y phases=2 Linecode=1P_UG_AL_4/0_Sweetbriar_2

New Line.l(r:p2udm20387-p2ulv17033) Units=km Length=0.0114328 bus1=p2udm20387.1.2 bus2=p2ulv17033.1.2 switch=n enabled=y phases=2 Linecode=1P_UG_AL_1/0_Brenau_2

New Line.l(r:p2udm20387-p2ulv18742) Units=km Length=0.010184500000000003 bus1=p2udm20387.1.2 bus2=p2ulv18742.1.2 switch=n enabled=y phases=2 Linecode=1P_UG_AL_1/0_Brenau_2

New Line.l(r:p2udm20387-p2udt5872lv) Units=km Length=0.00913401 bus1=p2udt5872lv.1.2 bus2=p2udm20387.1.2 switch=n enabled=y phases=2 Linecode=1P_UG_AL_1/0_Brenau_2

New Line.l(r:p2udm20388-p2ulv17064) Units=km Length=0.00955381 bus1=p2udm20388.1.2 bus2=p2ulv17064.1.2 switch=n enabled=y phases=2 Linecode=1P_UG_AL_1/0_Brenau_2

New Line.l(r:p2udm20388-p2ulv18739) Units=km Length=0.00968507 bus1=p2udm20388.1.2 bus2=p2ulv18739.1.2 switch=n enabled=y phases=2 Linecode=1P_UG_AL_1/0_Brenau_2

New Line.l(r:p2udm20388-p2udt5872lv) Units=km Length=0.00914387 bus1=p2udt5872lv.1.2 bus2=p2udm20388.1.2 switch=n enabled=y phases=2 Linecode=1P_UG_AL_1/0_Brenau_2

New Line.l(r:p2udt5873lv-p2ulv18745) Units=km Length=0.011227800000000001 bus1=p2udt5873lv.1.2 bus2=p2ulv18745.1.2 switch=n enabled=y phases=2 Linecode=1P_UG_AL_1/0_Brenau_2

New Line.l(r:p2udt5873lv-p2ulv40388) Units=km Length=0.0112851 bus1=p2udt5873lv.1.2 bus2=p2ulv40388.1.2 switch=n enabled=y phases=2 Linecode=1P_UG_AL_1/0_Brenau_2

New Line.l(r:p2udm20394-p2ulv17035) Units=km Length=0.0119535 bus1=p2udm20394.1.2 bus2=p2ulv17035.1.2 switch=n enabled=y phases=2 Linecode=1P_UG_AL_1/0_Brenau_2

New Line.l(r:p2udm20394-p2ulv18744) Units=km Length=0.0109578 bus1=p2udm20394.1.2 bus2=p2ulv18744.1.2 switch=n enabled=y phases=2 Linecode=1P_UG_AL_1/0_Brenau_2

New Line.l(r:p2udm20393-p2ulv17034) Units=km Length=0.0117211 bus1=p2udm20393.1.2 bus2=p2ulv17034.1.2 switch=n enabled=y phases=2 Linecode=1P_UG_AL_1/0_Brenau_2

New Line.l(r:p2udm20393-p2ulv18743) Units=km Length=0.014534500000000002 bus1=p2udm20393.1.2 bus2=p2ulv18743.1.2 switch=n enabled=y phases=2 Linecode=1P_UG_AL_1/0_Brenau_2

New Line.l(r:p2udm20393-p2udm20394) Units=km Length=0.00914387 bus1=p2udm20394.1.2 bus2=p2udm20393.1.2 switch=n enabled=y phases=2 Linecode=1P_UG_AL_1/0_Brenau_2

New Line.l(r:p2udm20394-p2udt5873lv) Units=km Length=0.00913401 bus1=p2udt5873lv.1.2 bus2=p2udm20394.1.2 switch=n enabled=y phases=2 Linecode=1P_UG_AL_4/0_Sweetbriar_2

New Line.l(r:p2udm20395-p2ulv17060) Units=km Length=0.011615700000000001 bus1=p2udm20395.1.2 bus2=p2ulv17060.1.2 switch=n enabled=y phases=2 Linecode=1P_UG_AL_1/0_Brenau_2

New Line.l(r:p2udm20395-p2ulv18746) Units=km Length=0.0105825 bus1=p2udm20395.1.2 bus2=p2ulv18746.1.2 switch=n enabled=y phases=2 Linecode=1P_UG_AL_1/0_Brenau_2

New Line.l(r:p2udm20395-p2udt5873lv) Units=km Length=0.00914387 bus1=p2udt5873lv.1.2 bus2=p2udm20395.1.2 switch=n enabled=y phases=2 Linecode=1P_UG_AL_2/0_Converse_2

New Line.l(r:p2udm20401-p2ulv17036) Units=km Length=0.0106771 bus1=p2udm20401.1.2 bus2=p2ulv17036.1.2 switch=n enabled=y phases=2 Linecode=1P_OH_AL_2/0_Rucina_2

New Line.l(r:p2udm20401-p2udt5874lv) Units=km Length=0.00767414 bus1=p2udt5874lv.1.2 bus2=p2udm20401.1.2 switch=n enabled=y phases=2 Linecode=1P_OH_AL_2/0_Rucina_2

New Line.l(r:p2udm20402-p2ulv17108) Units=km Length=0.00932565 bus1=p2udm20402.1.2 bus2=p2ulv17108.1.2 switch=n enabled=y phases=2 Linecode=1P_UG_AL_2/0_Converse_2

New Line.l(r:p2udm20402-p2udt5874lv) Units=km Length=0.00847477 bus1=p2udt5874lv.1.2 bus2=p2udm20402.1.2 switch=n enabled=y phases=2 Linecode=1P_OH_AL_2/0_Rucina_2

New Line.l(r:p2udm20403-p2ulv18747) Units=km Length=0.0101838 bus1=p2udm20403.1.2 bus2=p2ulv18747.1.2 switch=n enabled=y phases=2 Linecode=1P_UG_AL_1/0_Brenau_2

New Line.l(r:p2udm20403-p2udt5874lv) Units=km Length=0.00871808 bus1=p2udt5874lv.1.2 bus2=p2udm20403.1.2 switch=n enabled=y phases=2 Linecode=1P_OH_AL_2/0_Rucina_2

New Line.l(r:p2udt5875lv-p2ulv17038) Units=km Length=0.00995885 bus1=p2udt5875lv.1.2 bus2=p2ulv17038.1.2 switch=n enabled=y phases=2 Linecode=1P_OH_AL_2/0_Rucina_2

New Line.l(r:p2udt5875lv-p2ulv17203) Units=km Length=0.010250300000000002 bus1=p2udt5875lv.1.2 bus2=p2ulv17203.1.2 switch=n enabled=y phases=2 Linecode=1P_OH_AL_2/0_Rucina_2

New Line.l(r:p2udm20404-p2ulv17037) Units=km Length=0.0107551 bus1=p2udm20404.1.2 bus2=p2ulv17037.1.2 switch=n enabled=y phases=2 Linecode=1P_OH_AL_2/0_Rucina_2

New Line.l(r:p2udm20404-p2ulv17059) Units=km Length=0.0129656 bus1=p2udm20404.1.2 bus2=p2ulv17059.1.2 switch=n enabled=y phases=2 Linecode=1P_OH_AL_2/0_Rucina_2

New Line.l(r:p2udm20404-p2ulv17205) Units=km Length=0.00965684 bus1=p2udm20404.1.2 bus2=p2ulv17205.1.2 switch=n enabled=y phases=2 Linecode=1P_OH_AL_2/0_Rucina_2

New Line.l(r:p2udm20404-p2udt5875lv) Units=km Length=0.0176499 bus1=p2udt5875lv.1.2 bus2=p2udm20404.1.2 switch=n enabled=y phases=2 Linecode=1P_OH_AL_2/0_Rucina_2

New Line.l(r:p2udm20406-p2ulv17040) Units=km Length=0.00925999 bus1=p2udm20406.1.2 bus2=p2ulv17040.1.2 switch=n enabled=y phases=2 Linecode=1P_OH_AL_2/0_Rucina_2

New Line.l(r:p2udm20406-p2udt5875lv) Units=km Length=0.0176499 bus1=p2udt5875lv.1.2 bus2=p2udm20406.1.2 switch=n enabled=y phases=2 Linecode=1P_OH_AL_2/0_Rucina_2

New Line.l(r:p2udt5876lv-p2ulv17041) Units=km Length=0.00984221 bus1=p2udt5876lv.1.2 bus2=p2ulv17041.1.2 switch=n enabled=y phases=2 Linecode=1P_OH_AL_2/0_Rucina_2

New Line.l(r:p2udt5876lv-p2ulv17200) Units=km Length=0.00939389 bus1=p2udt5876lv.1.2 bus2=p2ulv17200.1.2 switch=n enabled=y phases=2 Linecode=1P_OH_AL_2/0_Rucina_2

New Line.l(r:p2udm20412-p2ulv17201) Units=km Length=0.0100128 bus1=p2udm20412.1.2 bus2=p2ulv17201.1.2 switch=n enabled=y phases=2 Linecode=1P_OH_AL_2/0_Rucina_2

New Line.l(r:p2udm20412-p2udt5876lv) Units=km Length=0.0176499 bus1=p2udt5876lv.1.2 bus2=p2udm20412.1.2 switch=n enabled=y phases=2 Linecode=1P_OH_AL_2/0_Rucina_2

New Line.l(r:p2udt5877lv-p2ulv18629) Units=km Length=0.009479410000000002 bus1=p2udt5877lv.1.2 bus2=p2ulv18629.1.2 switch=n enabled=y phases=2 Linecode=1P_OH_AL_2/0_Rucina_2

New Line.l(r:p2udm20414-p2ulv17198) Units=km Length=0.0103523 bus1=p2udm20414.1.2 bus2=p2ulv17198.1.2 switch=n enabled=y phases=2 Linecode=1P_OH_AL_2/0_Rucina_2

New Line.l(r:p2udm20414-p2udt5877lv) Units=km Length=0.0184308 bus1=p2udt5877lv.1.2 bus2=p2udm20414.1.2 switch=n enabled=y phases=2 Linecode=1P_OH_AL_2/0_Rucina_2

New Line.l(r:p2udm20415-p2ulv17199) Units=km Length=0.0101981 bus1=p2udm20415.1.2 bus2=p2ulv17199.1.2 switch=n enabled=y phases=2 Linecode=1P_OH_AL_2/0_Rucina_2

New Line.l(r:p2udm20413-p2ulv17043) Units=km Length=0.0102587 bus1=p2udm20413.1.2 bus2=p2ulv17043.1.2 switch=n enabled=y phases=2 Linecode=1P_UG_AL_2/0_Converse_2

New Line.l(r:p2udm20413-p2udm20415) Units=km Length=0.0217256 bus1=p2udm20415.1.2 bus2=p2udm20413.1.2 switch=n enabled=y phases=2 Linecode=1P_OH_AL_2/0_Rucina_2

New Line.l(r:p2udm20415-p2udt5877lv) Units=km Length=0.0124097 bus1=p2udt5877lv.1.2 bus2=p2udm20415.1.2 switch=n enabled=y phases=2 Linecode=1P_OH_AL_2/0_Rucina_2

New Line.l(r:p2udt5878lv-p2ulv17053) Units=km Length=0.00926337 bus1=p2udt5878lv.1.2 bus2=p2ulv17053.1.2 switch=n enabled=y phases=2 Linecode=1P_UG_AL_1/0_Brenau_2

...