pydss-projects/SFO_Urban_Medium_sol_p2uhs12_udt4058/DSSfiles/Loads.dss
New Load.load_p2ulv8_1 conn=wye bus1=p2ulv8.1 kV=0.12 Vminpu=0.8 Vmaxpu=1.2 model=1 kW=17.457561496943182 kvar=2.7648054103183033 Phases=1 yearly=res_kw_9927_pu

New Load.load_p2ulv8_2 conn=wye bus1=p2ulv8.2 kV=0.12 Vminpu=0.8 Vmaxpu=1.2 model=1 kW=17.457561496943182 kvar=2.7648054103183033 Phases=1 yearly=res_kw_9927_pu

New Load.load_p2ulv1334_1 conn=wye bus1=p2ulv1334.1 kV=0.12 Vminpu=0.8 Vmaxpu=1.2 model=1 kW=5.193650991228419 kvar=1.7053045316935516 Phases=1 yearly=res_kw_8152_pu

New Load.load_p2ulv1334_2 conn=wye bus1=p2ulv1334.2 kV=0.12 Vminpu=0.8 Vmaxpu=1.2 model=1 kW=5.193650991228419 kvar=1.7053045316935516 Phases=1 yearly=res_kw_8152_pu

New Load.load_p2ulv1350 conn=wye bus1=p2ulv1350.1.2.3 kV=0.48 Vminpu=0.8 Vmaxpu=1.2 model=1 kW=65.4882950082963 kvar=17.935683347028995 Phases=3 yearly=com_kw_39371_pu

New Load.load_p2ulv1398_1 conn=wye bus1=p2ulv1398.1 kV=0.12 Vminpu=0.8 Vmaxpu=1.2 model=1 kW=5.344611420738238 kvar=1.2420904916308932 Phases=1 yearly=res_kw_892_pu

New Load.load_p2ulv1398_2 conn=wye bus1=p2ulv1398.2 kV=0.12 Vminpu=0.8 Vmaxpu=1.2 model=1 kW=5.344611420738238 kvar=1.2420904916308932 Phases=1 yearly=res_kw_892_pu

New Load.load_p2ulv2398_1 conn=wye bus1=p2ulv2398.1 kV=0.12 Vminpu=0.8 Vmaxpu=1.2 model=1 kW=1.2872959945163445 kvar=0.7045975538044593 Phases=1 yearly=res_kw_3244_pu

New Load.load_p2ulv2398_2 conn=wye bus1=p2ulv2398.2 kV=0.12 Vminpu=0.8 Vmaxpu=1.2 model=1 kW=1.2872959945163445 kvar=0.7045975538044593 Phases=1 yearly=res_kw_3244_pu

New Load.load_p2ulv2456_1 conn=wye bus1=p2ulv2456.1 kV=0.12 Vminpu=0.8 Vmaxpu=1.2 model=1 kW=12.051137035428619 kvar=2.66254906474734 Phases=1 yearly=res_kw_1525_pu

New Load.load_p2ulv2456_2 conn=wye bus1=p2ulv2456.2 kV=0.12 Vminpu=0.8 Vmaxpu=1.2 model=1 kW=12.051137035428619 kvar=2.66254906474734 Phases=1 yearly=res_kw_1525_pu

New Load.load_p2ulv2475_1 conn=wye bus1=p2ulv2475.1 kV=0.12 Vminpu=0.8 Vmaxpu=1.2 model=1 kW=27.763601203237986 kvar=4.514884216914319 Phases=1 yearly=res_kw_11946_pu

New Load.load_p2ulv2475_2 conn=wye bus1=p2ulv2475.2 kV=0.12 Vminpu=0.8 Vmaxpu=1.2 model=1 kW=27.763601203237986 kvar=4.514884216914319 Phases=1 yearly=res_kw_11946_pu

New Load.load_p2ulv2497_1 conn=wye bus1=p2ulv2497.1 kV=0.12 Vminpu=0.8 Vmaxpu=1.2 model=1 kW=3.622195801749729 kvar=1.1191382775825767 Phases=1 yearly=res_kw_10786_pu

New Load.load_p2ulv2497_2 conn=wye bus1=p2ulv2497.2 kV=0.12 Vminpu=0.8 Vmaxpu=1.2 model=1 kW=3.622195801749729 kvar=1.1191382775825767 Phases=1 yearly=res_kw_10786_pu

New Load.load_p2ulv2514_1 conn=wye bus1=p2ulv2514.1 kV=0.12 Vminpu=0.8 Vmaxpu=1.2 model=1 kW=4.189941515419322 kvar=1.043990667394076 Phases=1 yearly=res_kw_14528_pu

New Load.load_p2ulv2514_2 conn=wye bus1=p2ulv2514.2 kV=0.12 Vminpu=0.8 Vmaxpu=1.2 model=1 kW=4.189941515419322 kvar=1.043990667394076 Phases=1 yearly=res_kw_14528_pu

New Load.load_p2ulv2561 conn=wye bus1=p2ulv2561.1.2.3 kV=0.48 Vminpu=0.8 Vmaxpu=1.2 model=1 kW=42.05730255187551 kvar=7.110585410082197 Phases=3 yearly=res_kw_14580_pu

New Load.load_p2ulv3459_1 conn=wye bus1=p2ulv3459.1 kV=0.12 Vminpu=0.8 Vmaxpu=1.2 model=1 kW=11.495920496244223 kvar=4.518490967551786 Phases=1 yearly=res_kw_2567_pu

New Load.load_p2ulv3459_2 conn=wye bus1=p2ulv3459.2 kV=0.12 Vminpu=0.8 Vmaxpu=1.2 model=1 kW=11.495920496244223 kvar=4.518490967551786 Phases=1 yearly=res_kw_2567_pu

New Load.load_p2ulv3466_1 conn=wye bus1=p2ulv3466.1 kV=0.12 Vminpu=0.8 Vmaxpu=1.2 model=1 kW=3.743714563680269 kvar=0.9833672592825902 Phases=1 yearly=res_kw_2893_pu

New Load.load_p2ulv3466_2 conn=wye bus1=p2ulv3466.2 kV=0.12 Vminpu=0.8 Vmaxpu=1.2 model=1 kW=3.743714563680269 kvar=0.9833672592825902 Phases=1 yearly=res_kw_2893_pu

New Load.load_p2ulv3538_1 conn=wye bus1=p2ulv3538.1 kV=0.12 Vminpu=0.8 Vmaxpu=1.2 model=1 kW=8.678399331349102 kvar=5.446652475255383 Phases=1 yearly=res_kw_11804_pu

New Load.load_p2ulv3538_2 conn=wye bus1=p2ulv3538.2 kV=0.12 Vminpu=0.8 Vmaxpu=1.2 model=1 kW=8.678399331349102 kvar=5.446652475255383 Phases=1 yearly=res_kw_11804_pu

New Load.load_p2ulv3549_1 conn=wye bus1=p2ulv3549.1 kV=0.12 Vminpu=0.8 Vmaxpu=1.2 model=1 kW=7.308402525147498 kvar=2.202969592332133 Phases=1 yearly=res_kw_14465_pu

New Load.load_p2ulv3549_2 conn=wye bus1=p2ulv3549.2 kV=0.12 Vminpu=0.8 Vmaxpu=1.2 model=1 kW=7.308402525147498 kvar=2.202969592332133 Phases=1 yearly=res_kw_14465_pu

New Load.load_p2ulv3572_1 conn=wye bus1=p2ulv3572.1 kV=0.12 Vminpu=0.8 Vmaxpu=1.2 model=1 kW=2.3059571303462074 kvar=0.46124077406396896 Phases=1 yearly=res_kw_7887_pu

New Load.load_p2ulv3572_2 conn=wye bus1=p2ulv3572.2 kV=0.12 Vminpu=0.8 Vmaxpu=1.2 model=1 kW=2.3059571303462074 kvar=0.46124077406396896 Phases=1 yearly=res_kw_7887_pu

New Load.load_p2ulv3606_1 conn=wye bus1=p2ulv3606.1 kV=0.12 Vminpu=0.8 Vmaxpu=1.2 model=1 kW=1.583748468401239 kvar=0.7174784954944635 Phases=1 yearly=res_kw_11296_pu

...